# generated using pymatgen
data_Li6PS5Cl
_symmetry_space_group_name_H-M   'P 1'
_cell_length_a   9.63671177
_cell_length_b   9.63671177
_cell_length_c   9.63671177
_cell_angle_alpha   90.00000000
_cell_angle_beta   90.00000000
_cell_angle_gamma   90.00000000
_symmetry_Int_Tables_number   1
_chemical_formula_structural   Li6PS5Cl
_chemical_formula_sum   'Li24 P4 S20 Cl4'
_cell_volume   894.92493391
_cell_formula_units_Z   4
loop_
 _symmetry_equiv_pos_site_id
 _symmetry_equiv_pos_as_xyz
  1  'x, y, z'
loop_
 _atom_site_type_symbol
 _atom_site_label
 _atom_site_symmetry_multiplicity
 _atom_site_fract_x
 _atom_site_fract_y
 _atom_site_fract_z
 _atom_site_occupancy
  Li  Li0  1  0.97200000  0.30709000  0.30709000  1
  Li  Li1  1  0.97200000  0.80709000  0.80709000  1
  Li  Li2  1  0.02800000  0.30709000  0.69291000  1
  Li  Li3  1  0.02800000  0.80709000  0.19291000  1
  Li  Li4  1  0.16882000  0.16882000  0.97147000  1
  Li  Li5  1  0.21083000  0.78917000  0.00875000  1
  Li  Li6  1  0.83118000  0.16882000  0.02853000  1
  Li  Li7  1  0.78917000  0.78917000  0.99125000  1
  Li  Li8  1  0.28917000  0.99125000  0.28917000  1
  Li  Li9  1  0.33118000  0.02853000  0.66882000  1
  Li  Li10  1  0.66882000  0.97147000  0.66882000  1
  Li  Li11  1  0.71083000  0.00875000  0.28917000  1
  Li  Li12  1  0.16882000  0.66882000  0.47147000  1
  Li  Li13  1  0.21083000  0.28917000  0.50875000  1
  Li  Li14  1  0.83118000  0.66882000  0.52853000  1
  Li  Li15  1  0.78917000  0.28917000  0.49125000  1
  Li  Li16  1  0.28917000  0.49125000  0.78917000  1
  Li  Li17  1  0.33118000  0.52853000  0.16882000  1
  Li  Li18  1  0.66882000  0.47147000  0.16882000  1
  Li  Li19  1  0.71083000  0.50875000  0.78917000  1
  Li  Li20  1  0.47200000  0.30709000  0.80709000  1
  Li  Li21  1  0.47200000  0.80709000  0.30709000  1
  Li  Li22  1  0.52800000  0.19291000  0.30709000  1
  Li  Li23  1  0.52800000  0.69291000  0.80709000  1
  P  P24  1  0.50553888  0.49976338  0.49825636  1
  P  P25  1  0.50553962  0.99976354  0.99825584  1
  P  P26  1  0.00550394  0.49995402  0.99803584  1
  P  P27  1  0.00550362  0.99995363  0.49803417  1
  S  S28  1  0.14407865  0.87863659  0.60401411  1
  S  S29  1  0.10796541  0.12908195  0.36336034  1
  S  S30  1  0.87661628  0.86412180  0.39512770  1
  S  S31  1  0.88536811  0.11110793  0.63440086  1
  S  S32  1  0.88537067  0.61110902  0.13440231  1
  S  S33  1  0.87661374  0.36412082  0.89513014  1
  S  S34  1  0.10796365  0.62908195  0.86335904  1
  S  S35  1  0.14407829  0.37863771  0.10401406  1
  S  S36  1  0.64414835  0.10571424  0.87698393  1
  S  S37  1  0.60795148  0.86504887  0.12740250  1
  S  S38  1  0.38539692  0.13609309  0.10944979  1
  S  S39  1  0.37664044  0.89682559  0.86245769  1
  S  S40  1  0.64414875  0.60571320  0.37698499  1
  S  S41  1  0.60794784  0.36504668  0.62740296  1
  S  S42  1  0.38539588  0.63609253  0.60944987  1
  S  S43  1  0.37663853  0.39682585  0.36245788  1
  S  S44  1  0.75292391  0.74374639  0.75358222  1
  S  S45  1  0.75292439  0.24374720  0.25358382  1
  S  S46  1  0.25293455  0.75520449  0.24210629  1
  S  S47  1  0.25293274  0.25520327  0.74210875  1
  Cl  Cl48  1  0.00102473  0.96787615  0.00401558  1
  Cl  Cl49  1  0.00102374  0.46787427  0.50401842  1
  Cl  Cl50  1  0.50090787  0.00561456  0.46621115  1
  Cl  Cl51  1  0.50090775  0.50561625  0.96621185  1
