# generated using pymatgen
data_Li6PS5Cl
_symmetry_space_group_name_H-M   'P 1'
_cell_length_a   9.63934934
_cell_length_b   9.63934934
_cell_length_c   9.63934934
_cell_angle_alpha   90.00000000
_cell_angle_beta   90.00000000
_cell_angle_gamma   90.00000000
_symmetry_Int_Tables_number   1
_chemical_formula_structural   Li6PS5Cl
_chemical_formula_sum   'Li24 P4 S20 Cl4'
_cell_volume   895.65996024
_cell_formula_units_Z   4
loop_
_symmetry_equiv_pos_site_id
_symmetry_equiv_pos_as_xyz
1  'x, y, z'
loop_
_atom_site_type_symbol
_atom_site_label
_atom_site_symmetry_multiplicity
_atom_site_fract_x
_atom_site_fract_y
_atom_site_fract_z
_atom_site_occupancy
Li  Li0  1  0.97200000  0.30709000  0.30709000  1
Li  Li1  1  0.97200000  0.80709000  0.80709000  1
Li  Li2  1  0.02800000  0.30709000  0.69291000  1
Li  Li3  1  0.00875000  0.78917000  0.21083000  1
Li  Li4  1  0.16882000  0.16882000  0.97147000  1
Li  Li5  1  0.19291000  0.80709000  0.02800000  1
Li  Li6  1  0.83118000  0.16882000  0.02853000  1
Li  Li7  1  0.78917000  0.78917000  0.99125000  1
Li  Li8  1  0.28917000  0.99125000  0.28917000  1
Li  Li9  1  0.33118000  0.02853000  0.66882000  1
Li  Li10  1  0.66882000  0.97147000  0.66882000  1
Li  Li11  1  0.75000000  0.02889000  0.25000000  1
Li  Li12  1  0.16882000  0.66882000  0.47147000  1
Li  Li13  1  0.21083000  0.28917000  0.50875000  1
Li  Li14  1  0.83118000  0.66882000  0.52853000  1
Li  Li15  1  0.78917000  0.28917000  0.49125000  1
Li  Li16  1  0.28917000  0.49125000  0.78917000  1
Li  Li17  1  0.33118000  0.52853000  0.16882000  1
Li  Li18  1  0.66882000  0.47147000  0.16882000  1
Li  Li19  1  0.71083000  0.50875000  0.78917000  1
Li  Li20  1  0.47200000  0.30709000  0.80709000  1
Li  Li21  1  0.47200000  0.80709000  0.30709000  1
Li  Li22  1  0.52800000  0.19291000  0.30709000  1
Li  Li23  1  0.52800000  0.69291000  0.80709000  1
P  P24  1  0.50916916  0.49918266  0.49590084  1
P  P25  1  0.50316622  0.99900048  0.99830995  1
P  P26  1  0.00689538  0.50175903  0.99579648  1
P  P27  1  0.00600111  0.99931270  0.50013427  1
S  S28  1  0.14374201  0.87748389  0.60582050  1
S  S29  1  0.10484542  0.12897259  0.36343629  1
S  S30  1  0.87447999  0.86391041  0.39949467  1
S  S31  1  0.88754570  0.11073118  0.63752517  1
S  S32  1  0.88186658  0.60890243  0.13123351  1
S  S33  1  0.88326809  0.36828467  0.88448297  1
S  S34  1  0.11154734  0.63441102  0.86684784  1
S  S35  1  0.14368713  0.38037287  0.10385716  1
S  S36  1  0.64070621  0.10377353  0.87463312  1
S  S37  1  0.60552361  0.86461508  0.12820313  1
S  S38  1  0.38321583  0.13457181  0.10999886  1
S  S39  1  0.37406280  0.89295982  0.86556090  1
S  S40  1  0.64625048  0.60901327  0.37681021  1
S  S41  1  0.61267942  0.36620586  0.62567217  1
S  S42  1  0.38691716  0.63331611  0.60778868  1
S  S43  1  0.38537734  0.39373078  0.35749129  1
S  S44  1  0.75258379  0.74488781  0.75331214  1
S  S45  1  0.75559388  0.24744875  0.24617163  1
S  S46  1  0.25337176  0.75487621  0.24598109  1
S  S47  1  0.25485420  0.25428701  0.74214406  1
Cl  Cl48  1  0.99437973  0.96891662  0.01061798  1
Cl  Cl49  1  0.00543939  0.47198866  0.50121573  1
Cl  Cl50  1  0.49413744  0.00798088  0.47175788  1
Cl  Cl51  1  0.50217505  0.50465331  0.96492013  1