# generated using pymatgen
data_Li6PS5Cl
_symmetry_space_group_name_H-M   'P 1'
_cell_length_a   9.63934934
_cell_length_b   9.63934934
_cell_length_c   9.63934934
_cell_angle_alpha   90.00000000
_cell_angle_beta   90.00000000
_cell_angle_gamma   90.00000000
_symmetry_Int_Tables_number   1
_chemical_formula_structural   Li6PS5Cl
_chemical_formula_sum   'Li24 P4 S20 Cl4'
_cell_volume   895.65996024
_cell_formula_units_Z   4
loop_
 _symmetry_equiv_pos_site_id
 _symmetry_equiv_pos_as_xyz
  1  'x, y, z'
loop_
 _atom_site_type_symbol
 _atom_site_label
 _atom_site_symmetry_multiplicity
 _atom_site_fract_x
 _atom_site_fract_y
 _atom_site_fract_z
 _atom_site_occupancy
  Li  Li0  1  0.97595089  0.34852573  0.28349303  1
  Li  Li1  1  0.97512825  0.84212143  0.78525077  1
  Li  Li2  1  0.02609262  0.31299494  0.69747418  1
  Li  Li3  1  0.01973608  0.79904440  0.21648444  1
  Li  Li4  1  0.17827186  0.17094290  0.95838831  1
  Li  Li5  1  0.20711498  0.81065197  0.01789672  1
  Li  Li6  1  0.82812525  0.17304818  0.02660013  1
  Li  Li7  1  0.78959841  0.79231095  0.98534268  1
  Li  Li8  1  0.29097179  0.98734812  0.29414493  1
  Li  Li9  1  0.32977245  0.03689625  0.66457280  1
  Li  Li10  1  0.67948207  0.95878475  0.65845027  1
  Li  Li11  1  0.74647822  0.01303874  0.26427989  1
  Li  Li12  1  0.18090212  0.66472758  0.46098205  1
  Li  Li13  1  0.22831283  0.29024405  0.50795011  1
  Li  Li14  1  0.83137214  0.65688405  0.54162936  1
  Li  Li15  1  0.78854832  0.27875492  0.48185215  1
  Li  Li16  1  0.29029258  0.48760259  0.78811884  1
  Li  Li17  1  0.32925814  0.54275049  0.15793299  1
  Li  Li18  1  0.67339782  0.46246320  0.16662616  1
  Li  Li19  1  0.71117747  0.51455180  0.80234659  1
  Li  Li20  1  0.47849882  0.28574012  0.83357253  1
  Li  Li21  1  0.47713567  0.78876536  0.34494334  1
  Li  Li22  1  0.52693345  0.20003383  0.30688847  1
  Li  Li23  1  0.52094133  0.71013393  0.80681150  1
  P  P24  1  0.50916916  0.49918266  0.49590084  1
  P  P25  1  0.50316622  0.99900048  0.99830995  1
  P  P26  1  0.00689538  0.50175903  0.99579648  1
  P  P27  1  0.00600111  0.99931270  0.50013427  1
  S  S28  1  0.14374201  0.87748389  0.60582050  1
  S  S29  1  0.10484542  0.12897259  0.36343629  1
  S  S30  1  0.87447999  0.86391041  0.39949467  1
  S  S31  1  0.88754570  0.11073118  0.63752517  1
  S  S32  1  0.88186658  0.60890243  0.13123351  1
  S  S33  1  0.88326809  0.36828467  0.88448297  1
  S  S34  1  0.11154734  0.63441102  0.86684784  1
  S  S35  1  0.14368713  0.38037287  0.10385716  1
  S  S36  1  0.64070621  0.10377353  0.87463312  1
  S  S37  1  0.60552361  0.86461508  0.12820313  1
  S  S38  1  0.38321583  0.13457181  0.10999886  1
  S  S39  1  0.37406280  0.89295982  0.86556090  1
  S  S40  1  0.64625048  0.60901327  0.37681021  1
  S  S41  1  0.61267942  0.36620586  0.62567217  1
  S  S42  1  0.38691716  0.63331611  0.60778868  1
  S  S43  1  0.38537734  0.39373078  0.35749129  1
  S  S44  1  0.75258379  0.74488781  0.75331214  1
  S  S45  1  0.75559388  0.24744875  0.24617163  1
  S  S46  1  0.25337176  0.75487621  0.24598109  1
  S  S47  1  0.25485420  0.25428701  0.74214406  1
  Cl  Cl48  1  0.99437973  0.96891662  0.01061798  1
  Cl  Cl49  1  0.00543939  0.47198866  0.50121573  1
  Cl  Cl50  1  0.49413744  0.00798088  0.47175788  1
  Cl  Cl51  1  0.50217505  0.50465331  0.96492013  1
