# generated using pymatgen
data_Li6PS5Cl
_symmetry_space_group_name_H-M   'P 1'
_cell_length_a   9.64198692
_cell_length_b   9.64198692
_cell_length_c   9.64198692
_cell_angle_alpha   90.00000000
_cell_angle_beta   90.00000000
_cell_angle_gamma   90.00000000
_symmetry_Int_Tables_number   1
_chemical_formula_structural   Li6PS5Cl
_chemical_formula_sum   'Li24 P4 S20 Cl4'
_cell_volume   896.39538893
_cell_formula_units_Z   4
loop_
 _symmetry_equiv_pos_site_id
 _symmetry_equiv_pos_as_xyz
  1  'x, y, z'
loop_
 _atom_site_type_symbol
 _atom_site_label
 _atom_site_symmetry_multiplicity
 _atom_site_fract_x
 _atom_site_fract_y
 _atom_site_fract_z
 _atom_site_occupancy
  Li  Li0  1  0.97147000  0.33118000  0.33118000  1
  Li  Li1  1  0.97200000  0.80709000  0.80709000  1
  Li  Li2  1  0.02800000  0.30709000  0.69291000  1
  Li  Li3  1  0.00875000  0.78917000  0.21083000  1
  Li  Li4  1  0.16882000  0.16882000  0.97147000  1
  Li  Li5  1  0.19291000  0.80709000  0.02800000  1
  Li  Li6  1  0.80709000  0.19291000  0.02800000  1
  Li  Li7  1  0.78917000  0.78917000  0.99125000  1
  Li  Li8  1  0.28917000  0.99125000  0.28917000  1
  Li  Li9  1  0.33118000  0.02853000  0.66882000  1
  Li  Li10  1  0.66882000  0.97147000  0.66882000  1
  Li  Li11  1  0.78917000  0.00875000  0.21083000  1
  Li  Li12  1  0.16882000  0.66882000  0.47147000  1
  Li  Li13  1  0.25000000  0.25000000  0.52889000  1
  Li  Li14  1  0.83118000  0.66882000  0.52853000  1
  Li  Li15  1  0.78917000  0.28917000  0.49125000  1
  Li  Li16  1  0.28917000  0.49125000  0.78917000  1
  Li  Li17  1  0.33118000  0.52853000  0.16882000  1
  Li  Li18  1  0.66882000  0.47147000  0.16882000  1
  Li  Li19  1  0.71083000  0.50875000  0.78917000  1
  Li  Li20  1  0.47200000  0.30709000  0.80709000  1
  Li  Li21  1  0.47147000  0.83118000  0.33118000  1
  Li  Li22  1  0.52800000  0.19291000  0.30709000  1
  Li  Li23  1  0.52800000  0.69291000  0.80709000  1
  P  P24  1  0.51018668  0.49900083  0.49476517  1
  P  P25  1  0.50155978  0.99919403  0.00036642  1
  P  P26  1  0.00693346  0.50375819  0.99446513  1
  P  P27  1  0.00400004  0.99953317  0.50224661  1
  S  S28  1  0.14042631  0.87620124  0.60740730  1
  S  S29  1  0.10270329  0.12999480  0.36587646  1
  S  S30  1  0.86912816  0.86776995  0.40131978  1
  S  S31  1  0.88747179  0.11162965  0.64075560  1
  S  S32  1  0.87786094  0.60759572  0.12871917  1
  S  S33  1  0.88838985  0.37195334  0.87607798  1
  S  S34  1  0.11323527  0.63878858  0.87000646  1
  S  S35  1  0.14217988  0.38249706  0.10461587  1
  S  S36  1  0.63672449  0.10312826  0.87327805  1
  S  S37  1  0.60695862  0.87026254  0.13321275  1
  S  S38  1  0.38010357  0.13427450  0.11089881  1
  S  S39  1  0.37269494  0.88843516  0.87150804  1
  S  S40  1  0.64563916  0.61138743  0.37682621  1
  S  S41  1  0.61441220  0.36669108  0.62476820  1
  S  S42  1  0.38712633  0.63148361  0.60785946  1
  S  S43  1  0.39003595  0.39120915  0.35494730  1
  S  S44  1  0.75085102  0.74600974  0.75333087  1
  S  S45  1  0.75772350  0.24845551  0.24222632  1
  S  S46  1  0.25318558  0.75425488  0.24937811  1
  S  S47  1  0.25510397  0.25271212  0.74376084  1
  Cl  Cl48  1  0.98560875  0.97096964  0.01828882  1
  Cl  Cl49  1  0.00370221  0.47933129  0.49945092  1
  Cl  Cl50  1  0.48509163  0.01134977  0.47775935  1
  Cl  Cl51  1  0.50282535  0.50410554  0.96497450  1
