# generated using pymatgen
data_Li6PS5Cl
_symmetry_space_group_name_H-M   'P 1'
_cell_length_a   9.64198692
_cell_length_b   9.64198692
_cell_length_c   9.64198692
_cell_angle_alpha   90.00000000
_cell_angle_beta   90.00000000
_cell_angle_gamma   90.00000000
_symmetry_Int_Tables_number   1
_chemical_formula_structural   Li6PS5Cl
_chemical_formula_sum   'Li24 P4 S20 Cl4'
_cell_volume   896.39538893
_cell_formula_units_Z   4
loop_
 _symmetry_equiv_pos_site_id
 _symmetry_equiv_pos_as_xyz
  1  'x, y, z'
loop_
 _atom_site_type_symbol
 _atom_site_label
 _atom_site_symmetry_multiplicity
 _atom_site_fract_x
 _atom_site_fract_y
 _atom_site_fract_z
 _atom_site_occupancy
  Li  Li0  1  0.97555738  0.35325315  0.28589864  1
  Li  Li1  1  0.97249082  0.84274984  0.78766517  1
  Li  Li2  1  0.02991270  0.31566231  0.68657755  1
  Li  Li3  1  0.01807955  0.78619439  0.22692630  1
  Li  Li4  1  0.17570255  0.17474942  0.96024579  1
  Li  Li5  1  0.20226231  0.81510154  0.02406078  1
  Li  Li6  1  0.82297562  0.18504686  0.01747992  1
  Li  Li7  1  0.78456065  0.79100282  0.98564122  1
  Li  Li8  1  0.28772773  0.98725858  0.29588656  1
  Li  Li9  1  0.32700066  0.03114993  0.67379160  1
  Li  Li10  1  0.67817550  0.95911724  0.65591543  1
  Li  Li11  1  0.78367956  0.01411495  0.23241638  1
  Li  Li12  1  0.18180519  0.66210449  0.46420556  1
  Li  Li13  1  0.25192539  0.26808932  0.50777404  1
  Li  Li14  1  0.83084618  0.65766607  0.54195728  1
  Li  Li15  1  0.78362642  0.26980102  0.47926292  1
  Li  Li16  1  0.28761365  0.48732426  0.78695265  1
  Li  Li17  1  0.32910368  0.54347673  0.15799195  1
  Li  Li18  1  0.66953714  0.46257708  0.16904229  1
  Li  Li19  1  0.71119510  0.51543244  0.80196463  1
  Li  Li20  1  0.47881862  0.28721523  0.83140375  1
  Li  Li21  1  0.47763247  0.79271726  0.34772821  1
  Li  Li22  1  0.53198079  0.19141898  0.30368994  1
  Li  Li23  1  0.51990174  0.70870899  0.80658342  1
  P  P24  1  0.51018668  0.49900083  0.49476517  1
  P  P25  1  0.50155978  0.99919403  0.00036642  1
  P  P26  1  0.00693346  0.50375819  0.99446513  1
  P  P27  1  0.00400004  0.99953317  0.50224661  1
  S  S28  1  0.14042631  0.87620124  0.60740730  1
  S  S29  1  0.10270329  0.12999480  0.36587646  1
  S  S30  1  0.86912816  0.86776995  0.40131978  1
  S  S31  1  0.88747179  0.11162965  0.64075560  1
  S  S32  1  0.87786094  0.60759572  0.12871917  1
  S  S33  1  0.88838985  0.37195334  0.87607798  1
  S  S34  1  0.11323527  0.63878858  0.87000646  1
  S  S35  1  0.14217988  0.38249706  0.10461587  1
  S  S36  1  0.63672449  0.10312826  0.87327805  1
  S  S37  1  0.60695862  0.87026254  0.13321275  1
  S  S38  1  0.38010357  0.13427450  0.11089881  1
  S  S39  1  0.37269494  0.88843516  0.87150804  1
  S  S40  1  0.64563916  0.61138743  0.37682621  1
  S  S41  1  0.61441220  0.36669108  0.62476820  1
  S  S42  1  0.38712633  0.63148361  0.60785946  1
  S  S43  1  0.39003595  0.39120915  0.35494730  1
  S  S44  1  0.75085102  0.74600974  0.75333087  1
  S  S45  1  0.75772350  0.24845551  0.24222632  1
  S  S46  1  0.25318558  0.75425488  0.24937811  1
  S  S47  1  0.25510397  0.25271212  0.74376084  1
  Cl  Cl48  1  0.98560875  0.97096964  0.01828882  1
  Cl  Cl49  1  0.00370221  0.47933129  0.49945092  1
  Cl  Cl50  1  0.48509163  0.01134977  0.47775935  1
  Cl  Cl51  1  0.50282535  0.50410554  0.96497450  1
