# generated using pymatgen
data_Li6PS5Cl
_symmetry_space_group_name_H-M   'P 1'
_cell_length_a   9.64462450
_cell_length_b   9.64462450
_cell_length_c   9.64462450
_cell_angle_alpha   90.00000000
_cell_angle_beta   90.00000000
_cell_angle_gamma   90.00000000
_symmetry_Int_Tables_number   1
_chemical_formula_structural   Li6PS5Cl
_chemical_formula_sum   'Li24 P4 S20 Cl4'
_cell_volume   897.13122008
_cell_formula_units_Z   4
loop_
_symmetry_equiv_pos_site_id
_symmetry_equiv_pos_as_xyz
1  'x, y, z'
loop_
_atom_site_type_symbol
_atom_site_label
_atom_site_symmetry_multiplicity
_atom_site_fract_x
_atom_site_fract_y
_atom_site_fract_z
_atom_site_occupancy
Li  Li0  1  0.97147000  0.33118000  0.33118000  1
Li  Li1  1  0.97200000  0.80709000  0.80709000  1
Li  Li2  1  0.02853000  0.33118000  0.66882000  1
Li  Li3  1  0.02889000  0.75000000  0.25000000  1
Li  Li4  1  0.16882000  0.16882000  0.97147000  1
Li  Li5  1  0.19291000  0.80709000  0.02800000  1
Li  Li6  1  0.80709000  0.19291000  0.02800000  1
Li  Li7  1  0.78917000  0.78917000  0.99125000  1
Li  Li8  1  0.28917000  0.99125000  0.28917000  1
Li  Li9  1  0.30709000  0.02800000  0.69291000  1
Li  Li10  1  0.66882000  0.97147000  0.66882000  1
Li  Li11  1  0.78917000  0.00875000  0.21083000  1
Li  Li12  1  0.16882000  0.66882000  0.47147000  1
Li  Li13  1  0.28917000  0.21083000  0.50875000  1
Li  Li14  1  0.83118000  0.66882000  0.52853000  1
Li  Li15  1  0.75000000  0.25000000  0.47111000  1
Li  Li16  1  0.28917000  0.49125000  0.78917000  1
Li  Li17  1  0.33118000  0.52853000  0.16882000  1
Li  Li18  1  0.66882000  0.47147000  0.16882000  1
Li  Li19  1  0.71083000  0.50875000  0.78917000  1
Li  Li20  1  0.47200000  0.30709000  0.80709000  1
Li  Li21  1  0.47147000  0.83118000  0.33118000  1
Li  Li22  1  0.52800000  0.19291000  0.30709000  1
Li  Li23  1  0.52800000  0.69291000  0.80709000  1
P  P24  1  0.51074231  0.49957495  0.49405545  1
P  P25  1  0.49999735  0.99944869  0.00211921  1
P  P26  1  0.00691688  0.50415989  0.99283670  1
P  P27  1  0.00331088  0.00040626  0.50332604  1
S  S28  1  0.13822804  0.87508276  0.60804862  1
S  S29  1  0.10319168  0.13371463  0.37074756  1
S  S30  1  0.86613396  0.87236115  0.40073396  1
S  S31  1  0.88712056  0.11214641  0.64243828  1
S  S32  1  0.87303447  0.60651478  0.12363547  1
S  S33  1  0.89510320  0.37221987  0.86859813  1
S  S34  1  0.11497330  0.64166104  0.87290645  1
S  S35  1  0.14059108  0.38476688  0.10656973  1
S  S36  1  0.63226243  0.10292895  0.87130610  1
S  S37  1  0.60968159  0.87801219  0.13797158  1
S  S38  1  0.37583800  0.13447995  0.10964807  1
S  S39  1  0.37237303  0.88176021  0.87857615  1
S  S40  1  0.64424057  0.61431684  0.37626223  1
S  S41  1  0.61619626  0.36805300  0.62386401  1
S  S42  1  0.38881993  0.63146698  0.60924083  1
S  S43  1  0.39118041  0.39088370  0.35480308  1
S  S44  1  0.74986506  0.74695108  0.75378517  1
S  S45  1  0.75902630  0.24903353  0.23946003  1
S  S46  1  0.25282580  0.75402723  0.25203147  1
S  S47  1  0.25597992  0.25113939  0.74359658  1
Cl  Cl48  1  0.98301106  0.97650176  0.01663504  1
Cl  Cl49  1  0.00255246  0.48967555  0.49626067  1
Cl  Cl50  1  0.47652229  0.01918312  0.48069104  1
Cl  Cl51  1  0.50468795  0.50266244  0.96592059  1