# generated using pymatgen
data_Li6PS5Cl
_symmetry_space_group_name_H-M   'P 1'
_cell_length_a   9.64726207
_cell_length_b   9.64726207
_cell_length_c   9.64726207
_cell_angle_alpha   90.00000000
_cell_angle_beta   90.00000000
_cell_angle_gamma   90.00000000
_symmetry_Int_Tables_number   1
_chemical_formula_structural   Li6PS5Cl
_chemical_formula_sum   'Li24 P4 S20 Cl4'
_cell_volume   897.86745380
_cell_formula_units_Z   4
loop_
 _symmetry_equiv_pos_site_id
 _symmetry_equiv_pos_as_xyz
  1  'x, y, z'
loop_
 _atom_site_type_symbol
 _atom_site_label
 _atom_site_symmetry_multiplicity
 _atom_site_fract_x
 _atom_site_fract_y
 _atom_site_fract_z
 _atom_site_occupancy
  Li  Li0  1  0.97147000  0.33118000  0.33118000  1
  Li  Li1  1  0.97200000  0.80709000  0.80709000  1
  Li  Li2  1  0.02853000  0.33118000  0.66882000  1
  Li  Li3  1  0.00875000  0.71083000  0.28917000  1
  Li  Li4  1  0.16882000  0.16882000  0.97147000  1
  Li  Li5  1  0.16882000  0.83118000  0.02853000  1
  Li  Li6  1  0.80709000  0.19291000  0.02800000  1
  Li  Li7  1  0.78917000  0.78917000  0.99125000  1
  Li  Li8  1  0.28917000  0.99125000  0.28917000  1
  Li  Li9  1  0.30709000  0.02800000  0.69291000  1
  Li  Li10  1  0.66882000  0.97147000  0.66882000  1
  Li  Li11  1  0.80709000  0.02800000  0.19291000  1
  Li  Li12  1  0.16882000  0.66882000  0.47147000  1
  Li  Li13  1  0.28917000  0.21083000  0.50875000  1
  Li  Li14  1  0.83118000  0.66882000  0.52853000  1
  Li  Li15  1  0.75000000  0.25000000  0.47111000  1
  Li  Li16  1  0.28917000  0.49125000  0.78917000  1
  Li  Li17  1  0.33118000  0.52853000  0.16882000  1
  Li  Li18  1  0.66882000  0.47147000  0.16882000  1
  Li  Li19  1  0.71083000  0.50875000  0.78917000  1
  Li  Li20  1  0.47200000  0.30709000  0.80709000  1
  Li  Li21  1  0.47147000  0.83118000  0.33118000  1
  Li  Li22  1  0.52800000  0.19291000  0.30709000  1
  Li  Li23  1  0.52800000  0.69291000  0.80709000  1
  P  P24  1  0.51288759  0.50041117  0.49449014  1
  P  P25  1  0.49686733  0.99945330  0.00286835  1
  P  P26  1  0.00596669  0.50480569  0.99065310  1
  P  P27  1  0.00445183  0.00054407  0.50268833  1
  S  S28  1  0.13998959  0.87713465  0.60868764  1
  S  S29  1  0.10449358  0.13730760  0.37358210  1
  S  S30  1  0.86913416  0.87266479  0.39809043  1
  S  S31  1  0.88663673  0.11159611  0.64098976  1
  S  S32  1  0.86815427  0.60772067  0.11681427  1
  S  S33  1  0.89913426  0.37166424  0.86330124  1
  S  S34  1  0.11582045  0.64311465  0.87383764  1
  S  S35  1  0.13783069  0.38724721  0.10828629  1
  S  S36  1  0.62735788  0.10221252  0.86961395  1
  S  S37  1  0.61042071  0.88235784  0.13939941  1
  S  S38  1  0.37117983  0.13478627  0.10837290  1
  S  S39  1  0.36882823  0.87796977  0.88410559  1
  S  S40  1  0.64393526  0.61654020  0.37544563  1
  S  S41  1  0.62084699  0.36999934  0.62327395  1
  S  S42  1  0.39424743  0.63167330  0.61366031  1
  S  S43  1  0.39187421  0.39191301  0.35652567  1
  S  S44  1  0.75028425  0.74771357  0.75512317  1
  S  S45  1  0.75831784  0.24821059  0.23693125  1
  S  S46  1  0.25225104  0.75357151  0.25464119  1
  S  S47  1  0.25587725  0.25217153  0.74197937  1
  Cl  Cl48  1  0.98069609  0.98481232  0.00897275  1
  Cl  Cl49  1  0.00748888  0.50304301  0.48765130  1
  Cl  Cl50  1  0.47739112  0.02303083  0.48144962  1
  Cl  Cl51  1  0.50546168  0.50078738  0.96698934  1