# generated using pymatgen
data_Li6PS5Cl
_symmetry_space_group_name_H-M   'P 1'
_cell_length_a   9.64989965
_cell_length_b   9.64989965
_cell_length_c   9.64989965
_cell_angle_alpha   90.00000000
_cell_angle_beta   90.00000000
_cell_angle_gamma   90.00000000
_symmetry_Int_Tables_number   1
_chemical_formula_structural   Li6PS5Cl
_chemical_formula_sum   'Li24 P4 S20 Cl4'
_cell_volume   898.60409021
_cell_formula_units_Z   4
loop_
 _symmetry_equiv_pos_site_id
 _symmetry_equiv_pos_as_xyz
  1  'x, y, z'
loop_
 _atom_site_type_symbol
 _atom_site_label
 _atom_site_symmetry_multiplicity
 _atom_site_fract_x
 _atom_site_fract_y
 _atom_site_fract_z
 _atom_site_occupancy
  Li  Li0  1  0.97147000  0.33118000  0.33118000  1
  Li  Li1  1  0.97200000  0.80709000  0.80709000  1
  Li  Li2  1  0.02853000  0.33118000  0.66882000  1
  Li  Li3  1  0.02800000  0.69291000  0.30709000  1
  Li  Li4  1  0.16882000  0.16882000  0.97147000  1
  Li  Li5  1  0.16882000  0.83118000  0.02853000  1
  Li  Li6  1  0.80709000  0.19291000  0.02800000  1
  Li  Li7  1  0.78917000  0.78917000  0.99125000  1
  Li  Li8  1  0.25000000  0.97111000  0.25000000  1
  Li  Li9  1  0.30709000  0.02800000  0.69291000  1
  Li  Li10  1  0.66882000  0.97147000  0.66882000  1
  Li  Li11  1  0.80709000  0.02800000  0.19291000  1
  Li  Li12  1  0.19291000  0.69291000  0.47200000  1
  Li  Li13  1  0.28917000  0.21083000  0.50875000  1
  Li  Li14  1  0.83118000  0.66882000  0.52853000  1
  Li  Li15  1  0.71083000  0.21083000  0.49125000  1
  Li  Li16  1  0.28917000  0.49125000  0.78917000  1
  Li  Li17  1  0.33118000  0.52853000  0.16882000  1
  Li  Li18  1  0.66882000  0.47147000  0.16882000  1
  Li  Li19  1  0.71083000  0.50875000  0.78917000  1
  Li  Li20  1  0.47200000  0.30709000  0.80709000  1
  Li  Li21  1  0.47147000  0.83118000  0.33118000  1
  Li  Li22  1  0.52800000  0.19291000  0.30709000  1
  Li  Li23  1  0.52800000  0.69291000  0.80709000  1
  P  P24  1  0.51548365  0.50284009  0.49515239  1
  P  P25  1  0.49377674  0.99970364  0.00275267  1
  P  P26  1  0.00470338  0.50393159  0.98946368  1
  P  P27  1  0.00673398  0.00075831  0.50254298  1
  S  S28  1  0.14503395  0.88387421  0.61218032  1
  S  S29  1  0.10637450  0.14090040  0.37611515  1
  S  S30  1  0.87810066  0.86951596  0.39488773  1
  S  S31  1  0.88554513  0.11101831  0.63841277  1
  S  S32  1  0.86711471  0.60921148  0.11357070  1
  S  S33  1  0.90034226  0.36906756  0.86210777  1
  S  S34  1  0.11420482  0.64080437  0.87044031  1
  S  S35  1  0.13570127  0.38889094  0.11061874  1
  S  S36  1  0.62368062  0.10118060  0.86753510  1
  S  S37  1  0.60947430  0.88465926  0.13907437  1
  S  S38  1  0.36817759  0.13721229  0.10561209  1
  S  S39  1  0.36450713  0.87630435  0.88813070  1
  S  S40  1  0.64175035  0.62158414  0.37363628  1
  S  S41  1  0.62911932  0.37462009  0.62079715  1
  S  S42  1  0.39881349  0.63279838  0.61779000  1
  S  S43  1  0.39271268  0.39313869  0.35948771  1
  S  S44  1  0.75142815  0.74822739  0.75689071  1
  S  S45  1  0.75567375  0.24648385  0.23680892  1
  S  S46  1  0.25073822  0.75227407  0.25648035  1
  S  S47  1  0.25776280  0.25562395  0.73999197  1
  Cl  Cl48  1  0.98170582  0.98712343  0.00705796  1
  Cl  Cl49  1  0.01124384  0.51136077  0.48304749  1
  Cl  Cl50  1  0.49070290  0.02912337  0.48550762  1
  Cl  Cl51  1  0.50586530  0.49928986  0.96756777  1
