# generated using pymatgen
data_Li6PS5Cl
_symmetry_space_group_name_H-M   'P 1'
_cell_length_a   9.65253722
_cell_length_b   9.65253722
_cell_length_c   9.65253722
_cell_angle_alpha   90.00000000
_cell_angle_beta   90.00000000
_cell_angle_gamma   90.00000000
_symmetry_Int_Tables_number   1
_chemical_formula_structural   Li6PS5Cl
_chemical_formula_sum   'Li24 P4 S20 Cl4'
_cell_volume   899.34112942
_cell_formula_units_Z   4
loop_
 _symmetry_equiv_pos_site_id
 _symmetry_equiv_pos_as_xyz
  1  'x, y, z'
loop_
 _atom_site_type_symbol
 _atom_site_label
 _atom_site_symmetry_multiplicity
 _atom_site_fract_x
 _atom_site_fract_y
 _atom_site_fract_z
 _atom_site_occupancy
  Li  Li0  1  0.96638634  0.34603402  0.30435837  1
  Li  Li1  1  0.98040582  0.81112709  0.77265392  1
  Li  Li2  1  0.04106784  0.32228248  0.65639124  1
  Li  Li3  1  0.01563168  0.69594209  0.28665263  1
  Li  Li4  1  0.16289402  0.18829041  0.95261360  1
  Li  Li5  1  0.17768580  0.80817677  0.03072159  1
  Li  Li6  1  0.81079559  0.19428143  0.01049589  1
  Li  Li7  1  0.79158851  0.81557573  0.98176180  1
  Li  Li8  1  0.22296666  0.98994537  0.23969411  1
  Li  Li9  1  0.33502415  0.02671278  0.69816087  1
  Li  Li10  1  0.68400674  0.95536399  0.66239867  1
  Li  Li11  1  0.81569763  0.01805717  0.21697961  1
  Li  Li12  1  0.20256578  0.67566197  0.47983416  1
  Li  Li13  1  0.30643528  0.22137459  0.50957113  1
  Li  Li14  1  0.81395158  0.65991587  0.53859472  1
  Li  Li15  1  0.72556733  0.20374617  0.47531396  1
  Li  Li16  1  0.29637101  0.48509391  0.79011320  1
  Li  Li17  1  0.32743880  0.54465161  0.16244442  1
  Li  Li18  1  0.66962753  0.46671568  0.17463655  1
  Li  Li19  1  0.71991818  0.51519305  0.81115118  1
  Li  Li20  1  0.48803127  0.29181770  0.81296887  1
  Li  Li21  1  0.46993923  0.81922588  0.34279391  1
  Li  Li22  1  0.52406181  0.19577416  0.28227770  1
  Li  Li23  1  0.52526473  0.70537434  0.82091516  1
  P  P24  1  0.51281417  0.50623840  0.49422307  1
  P  P25  1  0.49613469  0.99988719  0.00314441  1
  P  P26  1  0.00499430  0.50043851  0.99251297  1
  P  P27  1  0.00635908  0.00328154  0.50655420  1
  S  S28  1  0.14726770  0.88536491  0.61191346  1
  S  S29  1  0.10646738  0.14377169  0.38087216  1
  S  S30  1  0.87574465  0.87274062  0.39975234  1
  S  S31  1  0.88625450  0.11439302  0.64155564  1
  S  S32  1  0.86728134  0.61264833  0.11008830  1
  S  S33  1  0.90180720  0.36604785  0.86436142  1
  S  S34  1  0.12092806  0.63176490  0.87196394  1
  S  S35  1  0.13250058  0.38607163  0.11676165  1
  S  S36  1  0.62804562  0.10062453  0.86939701  1
  S  S37  1  0.61189751  0.88428338  0.13846221  1
  S  S38  1  0.36965566  0.13744565  0.10465872  1
  S  S39  1  0.36817931  0.87594411  0.88736837  1
  S  S40  1  0.63360615  0.62705002  0.36908715  1
  S  S41  1  0.63228657  0.38077512  0.61792269  1
  S  S42  1  0.39695962  0.63484674  0.61847606  1
  S  S43  1  0.38815849  0.39444716  0.36242114  1
  S  S44  1  0.75236563  0.74515590  0.75603363  1
  S  S45  1  0.75370385  0.24853535  0.23997193  1
  S  S46  1  0.24796277  0.75535558  0.25359096  1
  S  S47  1  0.26098820  0.25427238  0.74051324  1
  Cl  Cl48  1  0.98839834  0.98765101  0.01671518  1
  Cl  Cl49  1  0.00909148  0.51642085  0.48389395  1
  Cl  Cl50  1  0.50098689  0.03468647  0.49115264  1
  Cl  Cl51  1  0.50616522  0.49743253  0.96693267  1
