# generated using pymatgen
data_Li6PS5Cl
_symmetry_space_group_name_H-M   'P 1'
_cell_length_a   9.65517480
_cell_length_b   9.65517480
_cell_length_c   9.65517480
_cell_angle_alpha   90.00000000
_cell_angle_beta   90.00000000
_cell_angle_gamma   90.00000000
_symmetry_Int_Tables_number   1
_chemical_formula_structural   Li6PS5Cl
_chemical_formula_sum   'Li24 P4 S20 Cl4'
_cell_volume   900.07857153
_cell_formula_units_Z   4
loop_
_symmetry_equiv_pos_site_id
_symmetry_equiv_pos_as_xyz
1  'x, y, z'
loop_
_atom_site_type_symbol
_atom_site_label
_atom_site_symmetry_multiplicity
_atom_site_fract_x
_atom_site_fract_y
_atom_site_fract_z
_atom_site_occupancy
Li  Li0  1  0.97147000  0.33118000  0.33118000  1
Li  Li1  1  0.97111000  0.75000000  0.75000000  1
Li  Li2  1  0.02853000  0.33118000  0.66882000  1
Li  Li3  1  0.00875000  0.71083000  0.28917000  1
Li  Li4  1  0.16882000  0.16882000  0.97147000  1
Li  Li5  1  0.19291000  0.80709000  0.02800000  1
Li  Li6  1  0.80709000  0.19291000  0.02800000  1
Li  Li7  1  0.80709000  0.80709000  0.97200000  1
Li  Li8  1  0.21083000  0.99125000  0.21083000  1
Li  Li9  1  0.30709000  0.02800000  0.69291000  1
Li  Li10  1  0.66882000  0.97147000  0.66882000  1
Li  Li11  1  0.80709000  0.02800000  0.19291000  1
Li  Li12  1  0.19291000  0.69291000  0.47200000  1
Li  Li13  1  0.28917000  0.21083000  0.50875000  1
Li  Li14  1  0.83118000  0.66882000  0.52853000  1
Li  Li15  1  0.71083000  0.21083000  0.49125000  1
Li  Li16  1  0.28917000  0.49125000  0.78917000  1
Li  Li17  1  0.33118000  0.52853000  0.16882000  1
Li  Li18  1  0.66882000  0.47147000  0.16882000  1
Li  Li19  1  0.71083000  0.50875000  0.78917000  1
Li  Li20  1  0.49125000  0.28917000  0.78917000  1
Li  Li21  1  0.47147000  0.83118000  0.33118000  1
Li  Li22  1  0.50875000  0.21083000  0.28917000  1
Li  Li23  1  0.52800000  0.69291000  0.80709000  1
P  P24  1  0.51000029  0.50719008  0.49331657  1
P  P25  1  0.49841770  0.99989601  0.00350980  1
P  P26  1  0.00622045  0.49906837  0.99587572  1
P  P27  1  0.00517859  0.00425580  0.50987046  1
S  S28  1  0.14669926  0.88556704  0.61371669  1
S  S29  1  0.10646073  0.14503897  0.38560225  1
S  S30  1  0.87413011  0.87447135  0.40244525  1
S  S31  1  0.88560194  0.11665114  0.64374145  1
S  S32  1  0.86810895  0.61581670  0.10794130  1
S  S33  1  0.90353399  0.36668250  0.86528025  1
S  S34  1  0.12894199  0.62709539  0.87821479  1
S  S35  1  0.13069678  0.38438858  0.12227706  1
S  S36  1  0.63150216  0.10099613  0.87102276  1
S  S37  1  0.61608990  0.88330475  0.13610334  1
S  S38  1  0.37131135  0.13613371  0.10583976  1
S  S39  1  0.37080891  0.87647549  0.88693293  1
S  S40  1  0.62630489  0.62882465  0.36447678  1
S  S41  1  0.63255932  0.38334190  0.61590647  1
S  S42  1  0.39551771  0.63503204  0.61924588  1
S  S43  1  0.38392282  0.39473118  0.36382740  1
S  S44  1  0.75171643  0.74306850  0.75398872  1
S  S45  1  0.75278758  0.25122437  0.24196321  1
S  S46  1  0.24571311  0.75888335  0.25137211  1
S  S47  1  0.26248475  0.25262711  0.74154790  1
Cl  Cl48  1  0.99434471  0.99615011  0.03075143  1
Cl  Cl49  1  0.00729038  0.52197486  0.48880789  1
Cl  Cl50  1  0.50224498  0.03602495  0.49227213  1
Cl  Cl51  1  0.50700013  0.49589041  0.96670705  1