# generated using pymatgen
data_Li6PS5Cl
_symmetry_space_group_name_H-M   'P 1'
_cell_length_a   9.65517480
_cell_length_b   9.65517480
_cell_length_c   9.65517480
_cell_angle_alpha   90.00000000
_cell_angle_beta   90.00000000
_cell_angle_gamma   90.00000000
_symmetry_Int_Tables_number   1
_chemical_formula_structural   Li6PS5Cl
_chemical_formula_sum   'Li24 P4 S20 Cl4'
_cell_volume   900.07857153
_cell_formula_units_Z   4
loop_
 _symmetry_equiv_pos_site_id
 _symmetry_equiv_pos_as_xyz
  1  'x, y, z'
loop_
 _atom_site_type_symbol
 _atom_site_label
 _atom_site_symmetry_multiplicity
 _atom_site_fract_x
 _atom_site_fract_y
 _atom_site_fract_z
 _atom_site_occupancy
  Li  Li0  1  0.96547838  0.34595342  0.30997279  1
  Li  Li1  1  0.98419040  0.76147374  0.74127478  1
  Li  Li2  1  0.04302399  0.32162685  0.65666098  1
  Li  Li3  1  0.01389124  0.69917992  0.28688143  1
  Li  Li4  1  0.16457809  0.18927124  0.95431144  1
  Li  Li5  1  0.17703620  0.81178296  0.02724430  1
  Li  Li6  1  0.81394950  0.19569683  0.01350814  1
  Li  Li7  1  0.80240258  0.82443004  0.97496602  1
  Li  Li8  1  0.20639576  0.99306242  0.22922170  1
  Li  Li9  1  0.33484517  0.02526837  0.69829710  1
  Li  Li10  1  0.68629811  0.95595328  0.66359930  1
  Li  Li11  1  0.81489596  0.02051070  0.22004213  1
  Li  Li12  1  0.20470896  0.67959270  0.47692391  1
  Li  Li13  1  0.30904873  0.21910913  0.51099018  1
  Li  Li14  1  0.80260737  0.65736116  0.53295193  1
  Li  Li15  1  0.72434057  0.20307730  0.47661195  1
  Li  Li16  1  0.30040590  0.48207958  0.78935937  1
  Li  Li17  1  0.32538293  0.54642462  0.16298161  1
  Li  Li18  1  0.67086088  0.46855405  0.17276137  1
  Li  Li19  1  0.71935204  0.51403604  0.81296185  1
  Li  Li20  1  0.49034231  0.28986473  0.81182351  1
  Li  Li21  1  0.46729343  0.82605599  0.33706773  1
  Li  Li22  1  0.52300318  0.19866710  0.28333381  1
  Li  Li23  1  0.52574289  0.70407207  0.82215742  1
  P  P24  1  0.51000029  0.50719008  0.49331657  1
  P  P25  1  0.49841770  0.99989601  0.00350980  1
  P  P26  1  0.00622045  0.49906837  0.99587572  1
  P  P27  1  0.00517859  0.00425580  0.50987046  1
  S  S28  1  0.14669926  0.88556704  0.61371669  1
  S  S29  1  0.10646073  0.14503897  0.38560225  1
  S  S30  1  0.87413011  0.87447135  0.40244525  1
  S  S31  1  0.88560194  0.11665114  0.64374145  1
  S  S32  1  0.86810895  0.61581670  0.10794130  1
  S  S33  1  0.90353399  0.36668250  0.86528025  1
  S  S34  1  0.12894199  0.62709539  0.87821479  1
  S  S35  1  0.13069678  0.38438858  0.12227706  1
  S  S36  1  0.63150216  0.10099613  0.87102276  1
  S  S37  1  0.61608990  0.88330475  0.13610334  1
  S  S38  1  0.37131135  0.13613371  0.10583976  1
  S  S39  1  0.37080891  0.87647549  0.88693293  1
  S  S40  1  0.62630489  0.62882465  0.36447678  1
  S  S41  1  0.63255932  0.38334190  0.61590647  1
  S  S42  1  0.39551771  0.63503204  0.61924588  1
  S  S43  1  0.38392282  0.39473118  0.36382740  1
  S  S44  1  0.75171643  0.74306850  0.75398872  1
  S  S45  1  0.75278758  0.25122437  0.24196321  1
  S  S46  1  0.24571311  0.75888335  0.25137211  1
  S  S47  1  0.26248475  0.25262711  0.74154790  1
  Cl  Cl48  1  0.99434471  0.99615011  0.03075143  1
  Cl  Cl49  1  0.00729038  0.52197486  0.48880789  1
  Cl  Cl50  1  0.50224498  0.03602495  0.49227213  1
  Cl  Cl51  1  0.50700013  0.49589041  0.96670705  1
