# generated using pymatgen
data_Li6PS5Cl
_symmetry_space_group_name_H-M   'P 1'
_cell_length_a   9.66044995
_cell_length_b   9.66044995
_cell_length_c   9.66044995
_cell_angle_alpha   90.00000000
_cell_angle_beta   90.00000000
_cell_angle_gamma   90.00000000
_symmetry_Int_Tables_number   1
_chemical_formula_structural   Li6PS5Cl
_chemical_formula_sum   'Li24 P4 S20 Cl4'
_cell_volume   901.55466491
_cell_formula_units_Z   4
loop_
_symmetry_equiv_pos_site_id
_symmetry_equiv_pos_as_xyz
1  'x, y, z'
loop_
_atom_site_type_symbol
_atom_site_label
_atom_site_symmetry_multiplicity
_atom_site_fract_x
_atom_site_fract_y
_atom_site_fract_z
_atom_site_occupancy
Li  Li0  1  0.97147000  0.33118000  0.33118000  1
Li  Li1  1  0.99125000  0.71083000  0.71083000  1
Li  Li2  1  0.02853000  0.33118000  0.66882000  1
Li  Li3  1  0.00875000  0.71083000  0.28917000  1
Li  Li4  1  0.16882000  0.16882000  0.97147000  1
Li  Li5  1  0.16882000  0.83118000  0.02853000  1
Li  Li6  1  0.80709000  0.19291000  0.02800000  1
Li  Li7  1  0.83118000  0.83118000  0.97147000  1
Li  Li8  1  0.21083000  0.99125000  0.21083000  1
Li  Li9  1  0.30709000  0.02800000  0.69291000  1
Li  Li10  1  0.66882000  0.97147000  0.66882000  1
Li  Li11  1  0.80709000  0.02800000  0.19291000  1
Li  Li12  1  0.19291000  0.69291000  0.47200000  1
Li  Li13  1  0.28917000  0.21083000  0.50875000  1
Li  Li14  1  0.80709000  0.69291000  0.52800000  1
Li  Li15  1  0.71083000  0.21083000  0.49125000  1
Li  Li16  1  0.28917000  0.49125000  0.78917000  1
Li  Li17  1  0.33118000  0.52853000  0.16882000  1
Li  Li18  1  0.66882000  0.47147000  0.16882000  1
Li  Li19  1  0.71083000  0.50875000  0.78917000  1
Li  Li20  1  0.49125000  0.28917000  0.78917000  1
Li  Li21  1  0.47147000  0.83118000  0.33118000  1
Li  Li22  1  0.50875000  0.21083000  0.28917000  1
Li  Li23  1  0.52800000  0.69291000  0.80709000  1
P  P24  1  0.50694957  0.50729792  0.49184523  1
P  P25  1  0.50122029  0.99974199  0.00336315  1
P  P26  1  0.00744770  0.49948560  0.99843937  1
P  P27  1  0.00286239  0.00343867  0.51420131  1
S  S28  1  0.14017876  0.88315076  0.62101612  1
S  S29  1  0.10687081  0.14475171  0.39213454  1
S  S30  1  0.87307400  0.87668640  0.40182725  1
S  S31  1  0.88242611  0.11780818  0.64523431  1
S  S32  1  0.86905340  0.61801727  0.10784389  1
S  S33  1  0.90556765  0.36826096  0.86592701  1
S  S34  1  0.13241885  0.62660749  0.88260044  1
S  S35  1  0.12944494  0.38439120  0.12688859  1
S  S36  1  0.63372293  0.10263288  0.87199543  1
S  S37  1  0.62113940  0.88240891  0.13266634  1
S  S38  1  0.37290914  0.13364737  0.10750840  1
S  S39  1  0.37472117  0.87597326  0.88604824  1
S  S40  1  0.61919668  0.62895438  0.35923661  1
S  S41  1  0.63232421  0.38430143  0.61237989  1
S  S42  1  0.39510128  0.63493633  0.62001229  1
S  S43  1  0.37892357  0.39448585  0.36504275  1
S  S44  1  0.75560727  0.74113361  0.75086996  1
S  S45  1  0.75281759  0.25316919  0.24332141  1
S  S46  1  0.24508411  0.76192765  0.24970470  1
S  S47  1  0.26388958  0.25165326  0.74338087  1
Cl  Cl48  1  0.99788821  0.00187930  0.03543750  1
Cl  Cl49  1  0.00580051  0.53083328  0.49786879  1
Cl  Cl50  1  0.50220952  0.03596187  0.49272196  1
Cl  Cl51  1  0.50896469  0.49489616  0.96529818  1