# generated using pymatgen
data_Li6PS5Cl
_symmetry_space_group_name_H-M   'P 1'
_cell_length_a   9.66044995
_cell_length_b   9.66044995
_cell_length_c   9.66044995
_cell_angle_alpha   90.00000000
_cell_angle_beta   90.00000000
_cell_angle_gamma   90.00000000
_symmetry_Int_Tables_number   1
_chemical_formula_structural   Li6PS5Cl
_chemical_formula_sum   'Li24 P4 S20 Cl4'
_cell_volume   901.55466491
_cell_formula_units_Z   4
loop_
 _symmetry_equiv_pos_site_id
 _symmetry_equiv_pos_as_xyz
  1  'x, y, z'
loop_
 _atom_site_type_symbol
 _atom_site_label
 _atom_site_symmetry_multiplicity
 _atom_site_fract_x
 _atom_site_fract_y
 _atom_site_fract_z
 _atom_site_occupancy
  Li  Li0  1  0.96525344  0.34559825  0.31525022  1
  Li  Li1  1  0.98772423  0.71235266  0.71057802  1
  Li  Li2  1  0.04481312  0.31763191  0.65811057  1
  Li  Li3  1  0.01398082  0.70302554  0.28645397  1
  Li  Li4  1  0.16764830  0.19144109  0.95720653  1
  Li  Li5  1  0.17790403  0.81663076  0.02433647  1
  Li  Li6  1  0.81551866  0.19806252  0.01478466  1
  Li  Li7  1  0.81430589  0.82727927  0.96761231  1
  Li  Li8  1  0.19948492  0.99559736  0.22775158  1
  Li  Li9  1  0.33096934  0.02270827  0.69853976  1
  Li  Li10  1  0.68674158  0.95565236  0.66730824  1
  Li  Li11  1  0.81443380  0.02256861  0.21990514  1
  Li  Li12  1  0.20845995  0.68744854  0.47550300  1
  Li  Li13  1  0.31228308  0.21735940  0.51342789  1
  Li  Li14  1  0.79131147  0.66277681  0.52560126  1
  Li  Li15  1  0.72166757  0.20007782  0.47657409  1
  Li  Li16  1  0.30210415  0.48122286  0.79100197  1
  Li  Li17  1  0.32477814  0.54792097  0.16333003  1
  Li  Li18  1  0.67248738  0.46972358  0.16971967  1
  Li  Li19  1  0.71981898  0.51298303  0.81017164  1
  Li  Li20  1  0.49253249  0.28957410  0.80926693  1
  Li  Li21  1  0.46734415  0.83122375  0.33111193  1
  Li  Li22  1  0.52225875  0.20294500  0.28318106  1
  Li  Li23  1  0.52980802  0.70367239  0.82113860  1
  P  P24  1  0.50694957  0.50729792  0.49184523  1
  P  P25  1  0.50122029  0.99974199  0.00336315  1
  P  P26  1  0.00744770  0.49948560  0.99843937  1
  P  P27  1  0.00286239  0.00343867  0.51420131  1
  S  S28  1  0.14017876  0.88315076  0.62101612  1
  S  S29  1  0.10687081  0.14475171  0.39213454  1
  S  S30  1  0.87307400  0.87668640  0.40182725  1
  S  S31  1  0.88242611  0.11780818  0.64523431  1
  S  S32  1  0.86905340  0.61801727  0.10784389  1
  S  S33  1  0.90556765  0.36826096  0.86592701  1
  S  S34  1  0.13241885  0.62660749  0.88260044  1
  S  S35  1  0.12944494  0.38439120  0.12688859  1
  S  S36  1  0.63372293  0.10263288  0.87199543  1
  S  S37  1  0.62113940  0.88240891  0.13266634  1
  S  S38  1  0.37290914  0.13364737  0.10750840  1
  S  S39  1  0.37472117  0.87597326  0.88604824  1
  S  S40  1  0.61919668  0.62895438  0.35923661  1
  S  S41  1  0.63232421  0.38430143  0.61237989  1
  S  S42  1  0.39510128  0.63493633  0.62001229  1
  S  S43  1  0.37892357  0.39448585  0.36504275  1
  S  S44  1  0.75560727  0.74113361  0.75086996  1
  S  S45  1  0.75281759  0.25316919  0.24332141  1
  S  S46  1  0.24508411  0.76192765  0.24970470  1
  S  S47  1  0.26388958  0.25165326  0.74338087  1
  Cl  Cl48  1  0.99788821  0.00187930  0.03543750  1
  Cl  Cl49  1  0.00580051  0.53083328  0.49786879  1
  Cl  Cl50  1  0.50220952  0.03596187  0.49272196  1
  Cl  Cl51  1  0.50896469  0.49489616  0.96529818  1
