# generated using pymatgen
data_Li6PS5Cl
_symmetry_space_group_name_H-M   'P 1'
_cell_length_a   9.65755783
_cell_length_b   9.65755783
_cell_length_c   9.65755783
_cell_angle_alpha   90.00000000
_cell_angle_beta   90.00000000
_cell_angle_gamma   90.00000000
_symmetry_Int_Tables_number   1
_chemical_formula_structural   Li6PS5Cl
_chemical_formula_sum   'Li24 P4 S20 Cl4'
_cell_volume   900.74519025
_cell_formula_units_Z   4
loop_
 _symmetry_equiv_pos_site_id
 _symmetry_equiv_pos_as_xyz
  1  'x, y, z'
loop_
 _atom_site_type_symbol
 _atom_site_label
 _atom_site_symmetry_multiplicity
 _atom_site_fract_x
 _atom_site_fract_y
 _atom_site_fract_z
 _atom_site_occupancy
  Li  Li0  1  0.97147000  0.33118000  0.33118000  1
  Li  Li1  1  0.99125000  0.71083000  0.71083000  1
  Li  Li2  1  0.02800000  0.30709000  0.69291000  1
  Li  Li3  1  0.06943000  0.79503000  0.06940000  1
  Li  Li4  1  0.19291000  0.19291000  0.97200000  1
  Li  Li5  1  0.33118000  0.66882000  0.02853000  1
  Li  Li6  1  0.78917000  0.21083000  0.00875000  1
  Li  Li7  1  0.69291000  0.69291000  0.97200000  1
  Li  Li8  1  0.21083000  0.99125000  0.21083000  1
  Li  Li9  1  0.30709000  0.02800000  0.69291000  1
  Li  Li10  1  0.83118000  0.97147000  0.83118000  1
  Li  Li11  1  0.80709000  0.02800000  0.19291000  1
  Li  Li12  1  0.28917000  0.78917000  0.49125000  1
  Li  Li13  1  0.30709000  0.19291000  0.52800000  1
  Li  Li14  1  0.69291000  0.80709000  0.52800000  1
  Li  Li15  1  0.66882000  0.16882000  0.47147000  1
  Li  Li16  1  0.21083000  0.49125000  0.71083000  1
  Li  Li17  1  0.16882000  0.52853000  0.33118000  1
  Li  Li18  1  0.71083000  0.49125000  0.21083000  1
  Li  Li19  1  0.80709000  0.52800000  0.69291000  1
  Li  Li20  1  0.47147000  0.33118000  0.83118000  1
  Li  Li21  1  0.47200000  0.80709000  0.30709000  1
  Li  Li22  1  0.52800000  0.30709000  0.19291000  1
  Li  Li23  1  0.52800000  0.80709000  0.69291000  1
  P  P24  1  0.50022802  0.50666784  0.49875122  1
  P  P25  1  0.50723294  0.99341449  0.00688860  1
  P  P26  1  0.00455381  0.49598363  0.00215521  1
  P  P27  1  0.00489970  0.00117705  0.50918341  1
  S  S28  1  0.12735452  0.89784292  0.64984488  1
  S  S29  1  0.12400712  0.14065566  0.40019298  1
  S  S30  1  0.91743874  0.86199302  0.37787741  1
  S  S31  1  0.85801122  0.10871139  0.61967174  1
  S  S32  1  0.88784774  0.62638158  0.12251998  1
  S  S33  1  0.88688005  0.38045883  0.86858314  1
  S  S34  1  0.13705996  0.62237172  0.89107983  1
  S  S35  1  0.11695510  0.37452804  0.13446826  1
  S  S36  1  0.62096586  0.11201204  0.87191514  1
  S  S37  1  0.64106797  0.87681339  0.12346518  1
  S  S38  1  0.37920172  0.11803127  0.12272436  1
  S  S39  1  0.38286028  0.85938644  0.89841209  1
  S  S40  1  0.63586981  0.62846636  0.38990587  1
  S  S41  1  0.60617177  0.36405371  0.61649866  1
  S  S42  1  0.38501531  0.63109985  0.62675345  1
  S  S43  1  0.37083476  0.40014457  0.36865917  1
  S  S44  1  0.76425949  0.74331933  0.74736716  1
  S  S45  1  0.74272479  0.24671210  0.25150802  1
  S  S46  1  0.25691847  0.75885595  0.24694311  1
  S  S47  1  0.25874653  0.25329291  0.75504819  1
  Cl  Cl48  1  0.99462472  0.01814879  0.02221159  1
  Cl  Cl49  1  0.01522254  0.49272387  0.53285529  1
  Cl  Cl50  1  0.49210660  0.97722096  0.51524488  1
  Cl  Cl51  1  0.53171350  0.49081367  0.01928348  1
