# generated using pymatgen
data_Li23P4(S5Cl)4
_symmetry_space_group_name_H-M   'P 1'
_cell_length_a   9.65680765
_cell_length_b   9.65680765
_cell_length_c   9.65680765
_cell_angle_alpha   90.00000000
_cell_angle_beta   90.00000000
_cell_angle_gamma   90.00000000
_symmetry_Int_Tables_number   1
_chemical_formula_structural   Li23P4(S5Cl)4
_chemical_formula_sum   'Li23 P4 S20 Cl4'
_cell_volume   900.53530375
_cell_formula_units_Z   1
loop_
 _symmetry_equiv_pos_site_id
 _symmetry_equiv_pos_as_xyz
  1  'x, y, z'
loop_
 _atom_site_type_symbol
 _atom_site_label
 _atom_site_symmetry_multiplicity
 _atom_site_fract_x
 _atom_site_fract_y
 _atom_site_fract_z
 _atom_site_occupancy
  Li  Li0  1  0.97147000  0.33118000  0.33118000  1
  Li  Li1  1  0.97111000  0.75000000  0.75000000  1
  Li  Li2  1  0.02800000  0.30709000  0.69291000  1
  Li  Li3  1  0.06943000  0.79503000  0.06940000  1
  Li  Li4  1  0.16882000  0.16882000  0.97147000  1
  Li  Li5  1  0.33118000  0.66882000  0.02853000  1
  Li  Li6  1  0.78917000  0.21083000  0.00875000  1
  Li  Li7  1  0.69291000  0.69291000  0.97200000  1
  Li  Li8  1  0.25000000  0.97111000  0.25000000  1
  Li  Li9  1  0.30709000  0.02800000  0.69291000  1
  Li  Li10  1  0.80709000  0.97200000  0.80709000  1
  Li  Li11  1  0.80709000  0.02800000  0.19291000  1
  Li  Li12  1  0.19291000  0.69291000  0.47200000  1
  Li  Li13  1  0.30709000  0.19291000  0.52800000  1
  Li  Li15  1  0.66882000  0.16882000  0.47147000  1
  Li  Li16  1  0.21083000  0.49125000  0.71083000  1
  Li  Li17  1  0.21083000  0.50875000  0.28917000  1
  Li  Li18  1  0.71083000  0.49125000  0.21083000  1
  Li  Li19  1  0.83118000  0.52853000  0.66882000  1
  Li  Li20  1  0.47147000  0.33118000  0.83118000  1
  Li  Li21  1  0.47200000  0.80709000  0.30709000  1
  Li  Li22  1  0.52800000  0.30709000  0.19291000  1
  Li  Li23  1  0.50875000  0.78917000  0.71083000  1
  Li  Li14  1  0.72577217  0.84783719  0.52923099  1
  P  P24  1  0.50545109  0.50575441  0.50178049  1
  P  P25  1  0.50407743  0.99291465  0.01190586  1
  P  P26  1  0.00518910  0.49494489  0.99853704  1
  P  P27  1  0.00590782  0.00390376  0.50759556  1
  S  S28  1  0.13457376  0.89837252  0.64048843  1
  S  S29  1  0.12136237  0.14411615  0.39648541  1
  S  S30  1  0.91864165  0.86184072  0.37771910  1
  S  S31  1  0.85798894  0.11102933  0.61685146  1
  S  S32  1  0.89122071  0.62394989  0.12336779  1
  S  S33  1  0.88327655  0.39364984  0.85839413  1
  S  S34  1  0.14517070  0.62201238  0.89730956  1
  S  S35  1  0.11063237  0.35894654  0.12252670  1
  S  S36  1  0.61785050  0.11932260  0.88380554  1
  S  S37  1  0.62868438  0.87156101  0.13317094  1
  S  S38  1  0.37227311  0.11674968  0.12422492  1
  S  S39  1  0.38058477  0.86423928  0.89549343  1
  S  S40  1  0.64800356  0.62783472  0.40046079  1
  S  S41  1  0.61297495  0.37382559  0.62891552  1
  S  S42  1  0.37542397  0.63411071  0.60940304  1
  S  S43  1  0.39195224  0.38643973  0.36669097  1
  S  S44  1  0.75708877  0.75257981  0.74902790  1
  S  S45  1  0.74774725  0.24655975  0.24963145  1
  S  S46  1  0.25796507  0.74507242  0.24990784  1
  S  S47  1  0.25718928  0.25229941  0.75409048  1
  Cl  Cl48  1  0.97959835  0.01214226  0.00727366  1
  Cl  Cl49  1  0.02845026  0.49819379  0.51651087  1
  Cl  Cl50  1  0.49876317  0.98925723  0.51468998  1
  Cl  Cl51  1  0.53183629  0.49324779  0.02062533  1