# generated using pymatgen
data_Li6PS5Cl
_symmetry_space_group_name_H-M   'P 1'
_cell_length_a   9.65605748
_cell_length_b   9.65605748
_cell_length_c   9.65605748
_cell_angle_alpha   90.00000000
_cell_angle_beta   90.00000000
_cell_angle_gamma   90.00000000
_symmetry_Int_Tables_number   1
_chemical_formula_structural   Li6PS5Cl
_chemical_formula_sum   'Li24 P4 S20 Cl4'
_cell_volume   900.32544985
_cell_formula_units_Z   4
loop_
 _symmetry_equiv_pos_site_id
 _symmetry_equiv_pos_as_xyz
  1  'x, y, z'
loop_
 _atom_site_type_symbol
 _atom_site_label
 _atom_site_symmetry_multiplicity
 _atom_site_fract_x
 _atom_site_fract_y
 _atom_site_fract_z
 _atom_site_occupancy
  Li  Li0  1  0.97147000  0.33118000  0.33118000  1
  Li  Li1  1  0.97200000  0.80709000  0.80709000  1
  Li  Li2  1  0.00875000  0.28917000  0.71083000  1
  Li  Li3  1  0.02853000  0.83118000  0.16882000  1
  Li  Li4  1  0.16882000  0.16882000  0.97147000  1
  Li  Li5  1  0.33118000  0.66882000  0.02853000  1
  Li  Li6  1  0.78917000  0.21083000  0.00875000  1
  Li  Li7  1  0.71083000  0.71083000  0.99125000  1
  Li  Li8  1  0.30709000  0.97200000  0.30709000  1
  Li  Li9  1  0.33118000  0.02853000  0.66882000  1
  Li  Li10  1  0.78917000  0.99125000  0.78917000  1
  Li  Li11  1  0.78917000  0.00875000  0.21083000  1
  Li  Li12  1  0.16882000  0.66882000  0.47147000  1
  Li  Li13  1  0.28917000  0.21083000  0.50875000  1
  Li  Li14  1  0.66882000  0.83118000  0.52853000  1
  Li  Li15  1  0.66882000  0.16882000  0.47147000  1
  Li  Li16  1  0.21083000  0.49125000  0.71083000  1
  Li  Li17  1  0.21083000  0.50875000  0.28917000  1
  Li  Li18  1  0.71083000  0.49125000  0.21083000  1
  Li  Li19  1  0.83118000  0.52853000  0.66882000  1
  Li  Li20  1  0.47147000  0.33118000  0.83118000  1
  Li  Li21  1  0.47200000  0.80709000  0.30709000  1
  Li  Li22  1  0.52800000  0.30709000  0.19291000  1
  Li  Li23  1  0.50875000  0.71083000  0.78917000  1
  P  P24  1  0.51131180  0.50229182  0.49990538  1
  P  P25  1  0.49952296  0.99494331  0.00828865  1
  P  P26  1  0.01306781  0.49697188  0.99527429  1
  P  P27  1  0.00109739  0.00018899  0.50253499  1
  S  S28  1  0.13116259  0.89646561  0.63420278  1
  S  S29  1  0.11396060  0.12736897  0.37440388  1
  S  S30  1  0.90097775  0.85783867  0.38017527  1
  S  S31  1  0.85578388  0.11538348  0.60707084  1
  S  S32  1  0.90272027  0.62255243  0.12809157  1
  S  S33  1  0.88170928  0.39764279  0.86103458  1
  S  S34  1  0.14801902  0.62081614  0.88790618  1
  S  S35  1  0.11858996  0.35675945  0.11457490  1
  S  S36  1  0.61124776  0.13155783  0.88782690  1
  S  S37  1  0.62566953  0.87293404  0.12836969  1
  S  S38  1  0.36637512  0.11219073  0.12438014  1
  S  S39  1  0.38144266  0.86883676  0.88467606  1
  S  S40  1  0.65524539  0.62411525  0.40040045  1
  S  S41  1  0.62052794  0.37778960  0.63192945  1
  S  S42  1  0.37784500  0.63052219  0.60365023  1
  S  S43  1  0.40445193  0.37991762  0.36136012  1
  S  S44  1  0.76402717  0.75544253  0.75493110  1
  S  S45  1  0.74837174  0.25069724  0.24221162  1
  S  S46  1  0.25861648  0.74711914  0.25838028  1
  S  S47  1  0.25361318  0.24711688  0.74747977  1
  Cl  Cl48  1  0.97215756  0.00314152  0.99565552  1
  Cl  Cl49  1  0.03317719  0.48438564  0.50820426  1
  Cl  Cl50  1  0.49296888  0.99466723  0.48755990  1
  Cl  Cl51  1  0.52885014  0.51115901  0.00745599  1
