# generated using pymatgen
data_Li6PS5Cl
_symmetry_space_group_name_H-M   'P 1'
_cell_length_a   9.65605748
_cell_length_b   9.65605748
_cell_length_c   9.65605748
_cell_angle_alpha   90.00000000
_cell_angle_beta   90.00000000
_cell_angle_gamma   90.00000000
_symmetry_Int_Tables_number   1
_chemical_formula_structural   Li6PS5Cl
_chemical_formula_sum   'Li24 P4 S20 Cl4'
_cell_volume   900.32544985
_cell_formula_units_Z   4
loop_
 _symmetry_equiv_pos_site_id
 _symmetry_equiv_pos_as_xyz
  1  'x, y, z'
loop_
 _atom_site_type_symbol
 _atom_site_label
 _atom_site_symmetry_multiplicity
 _atom_site_fract_x
 _atom_site_fract_y
 _atom_site_fract_z
 _atom_site_occupancy
  Li  Li0  1  0.96380549  0.32248011  0.31804100  1
  Li  Li1  1  0.99404764  0.80064429  0.82054091  1
  Li  Li2  1  0.02038596  0.27632185  0.69213064  1
  Li  Li3  1  0.05052619  0.82401060  0.16768637  1
  Li  Li4  1  0.17733154  0.15908905  0.96256145  1
  Li  Li5  1  0.34045587  0.67700668  0.04326743  1
  Li  Li6  1  0.81694448  0.21812405  0.01496180  1
  Li  Li7  1  0.71812110  0.68775844  0.98013659  1
  Li  Li8  1  0.29963719  0.97663609  0.31925569  1
  Li  Li9  1  0.34562691  0.02377596  0.69570444  1
  Li  Li10  1  0.78816986  0.98536043  0.80944992  1
  Li  Li11  1  0.80694281  0.01933337  0.21347386  1
  Li  Li12  1  0.14573116  0.71111199  0.47134986  1
  Li  Li13  1  0.28599924  0.23473733  0.51387905  1
  Li  Li14  1  0.70224761  0.84218870  0.53783041  1
  Li  Li15  1  0.65310859  0.19249179  0.45809365  1
  Li  Li16  1  0.21072751  0.47892625  0.69754266  1
  Li  Li17  1  0.21592890  0.51349319  0.28001969  1
  Li  Li18  1  0.71546604  0.48543745  0.20648771  1
  Li  Li19  1  0.81751640  0.54499669  0.64413033  1
  Li  Li20  1  0.46686742  0.33355766  0.82750055  1
  Li  Li21  1  0.48713519  0.78268987  0.32034227  1
  Li  Li22  1  0.52661203  0.29310090  0.15499134  1
  Li  Li23  1  0.53182971  0.70718249  0.77478842  1
  P  P24  1  0.51131180  0.50229182  0.49990538  1
  P  P25  1  0.49952296  0.99494331  0.00828865  1
  P  P26  1  0.01306781  0.49697188  0.99527429  1
  P  P27  1  0.00109739  0.00018899  0.50253499  1
  S  S28  1  0.13116259  0.89646561  0.63420278  1
  S  S29  1  0.11396060  0.12736897  0.37440388  1
  S  S30  1  0.90097775  0.85783867  0.38017527  1
  S  S31  1  0.85578388  0.11538348  0.60707084  1
  S  S32  1  0.90272027  0.62255243  0.12809157  1
  S  S33  1  0.88170928  0.39764279  0.86103458  1
  S  S34  1  0.14801902  0.62081614  0.88790618  1
  S  S35  1  0.11858996  0.35675945  0.11457490  1
  S  S36  1  0.61124776  0.13155783  0.88782690  1
  S  S37  1  0.62566953  0.87293404  0.12836969  1
  S  S38  1  0.36637512  0.11219073  0.12438014  1
  S  S39  1  0.38144266  0.86883676  0.88467606  1
  S  S40  1  0.65524539  0.62411525  0.40040045  1
  S  S41  1  0.62052794  0.37778960  0.63192945  1
  S  S42  1  0.37784500  0.63052219  0.60365023  1
  S  S43  1  0.40445193  0.37991762  0.36136012  1
  S  S44  1  0.76402717  0.75544253  0.75493110  1
  S  S45  1  0.74837174  0.25069724  0.24221162  1
  S  S46  1  0.25861648  0.74711914  0.25838028  1
  S  S47  1  0.25361318  0.24711688  0.74747977  1
  Cl  Cl48  1  0.97215756  0.00314152  0.99565552  1
  Cl  Cl49  1  0.03317719  0.48438564  0.50820426  1
  Cl  Cl50  1  0.49296888  0.99466723  0.48755990  1
  Cl  Cl51  1  0.52885014  0.51115901  0.00745599  1
