# generated using pymatgen
data_Li6PS5Cl
_symmetry_space_group_name_H-M   'P 1'
_cell_length_a   9.65530730
_cell_length_b   9.65530730
_cell_length_c   9.65530730
_cell_angle_alpha   90.00000000
_cell_angle_beta   90.00000000
_cell_angle_gamma   90.00000000
_symmetry_Int_Tables_number   1
_chemical_formula_structural   Li6PS5Cl
_chemical_formula_sum   'Li24 P4 S20 Cl4'
_cell_volume   900.11562855
_cell_formula_units_Z   4
loop_
 _symmetry_equiv_pos_site_id
 _symmetry_equiv_pos_as_xyz
  1  'x, y, z'
loop_
 _atom_site_type_symbol
 _atom_site_label
 _atom_site_symmetry_multiplicity
 _atom_site_fract_x
 _atom_site_fract_y
 _atom_site_fract_z
 _atom_site_occupancy
  Li  Li0  1  0.97147000  0.33118000  0.33118000  1
  Li  Li1  1  0.99125000  0.78917000  0.78917000  1
  Li  Li2  1  0.00875000  0.28917000  0.71083000  1
  Li  Li3  1  0.02853000  0.83118000  0.16882000  1
  Li  Li4  1  0.16882000  0.16882000  0.97147000  1
  Li  Li5  1  0.43060000  0.70497000  0.06943000  1
  Li  Li6  1  0.80709000  0.19291000  0.02800000  1
  Li  Li7  1  0.71083000  0.71083000  0.99125000  1
  Li  Li8  1  0.30709000  0.97200000  0.30709000  1
  Li  Li9  1  0.30709000  0.02800000  0.69291000  1
  Li  Li10  1  0.80709000  0.97200000  0.80709000  1
  Li  Li11  1  0.80709000  0.02800000  0.19291000  1
  Li  Li12  1  0.06943000  0.70497000  0.43060000  1
  Li  Li13  1  0.28917000  0.21083000  0.50875000  1
  Li  Li14  1  0.69291000  0.80709000  0.52800000  1
  Li  Li15  1  0.66882000  0.16882000  0.47147000  1
  Li  Li16  1  0.19291000  0.47200000  0.69291000  1
  Li  Li17  1  0.28917000  0.50875000  0.21083000  1
  Li  Li18  1  0.71083000  0.49125000  0.21083000  1
  Li  Li19  1  0.83118000  0.52853000  0.66882000  1
  Li  Li20  1  0.47147000  0.33118000  0.83118000  1
  Li  Li21  1  0.43060000  0.79503000  0.43057000  1
  Li  Li22  1  0.52800000  0.30709000  0.19291000  1
  Li  Li23  1  0.52800000  0.69291000  0.80709000  1
  P  P24  1  0.50621101  0.50144129  0.49792953  1
  P  P25  1  0.50295154  0.00368025  0.99968437  1
  P  P26  1  0.01048899  0.49556920  0.99457912  1
  P  P27  1  0.00391918  0.99319268  0.49736561  1
  S  S28  1  0.13088506  0.88050678  0.62425497  1
  S  S29  1  0.11693430  0.12383155  0.37374812  1
  S  S30  1  0.90101551  0.85395876  0.37301366  1
  S  S31  1  0.85747852  0.10465608  0.60552675  1
  S  S32  1  0.90141621  0.62065595  0.12990410  1
  S  S33  1  0.87879481  0.39599052  0.86069701  1
  S  S34  1  0.15055243  0.62056607  0.89828170  1
  S  S35  1  0.11166073  0.35094563  0.11294617  1
  S  S36  1  0.61855223  0.13619675  0.87995173  1
  S  S37  1  0.61989709  0.88173500  0.12904994  1
  S  S38  1  0.36957901  0.12773603  0.10945201  1
  S  S39  1  0.38238212  0.87119237  0.88544664  1
  S  S40  1  0.63414836  0.63681710  0.39544340  1
  S  S41  1  0.61760384  0.37601120  0.62672333  1
  S  S42  1  0.37221544  0.62304527  0.61094165  1
  S  S43  1  0.39736457  0.38163594  0.35933137  1
  S  S44  1  0.75801567  0.75267412  0.75642846  1
  S  S45  1  0.75298775  0.25059683  0.24539076  1
  S  S46  1  0.25776986  0.75158361  0.25967359  1
  S  S47  1  0.24825966  0.24587544  0.74263476  1
  Cl  Cl48  1  0.97201249  0.00083603  0.99303383  1
  Cl  Cl49  1  0.01343063  0.47949052  0.51870588  1
  Cl  Cl50  1  0.48276331  0.00633481  0.49329733  1
  Cl  Cl51  1  0.52493153  0.51594592  0.01075482  1