# generated using pymatgen
data_Li23P4(S5Cl)4
_symmetry_space_group_name_H-M   'P 1'
_cell_length_a   9.65455713
_cell_length_b   9.65455713
_cell_length_c   9.65455713
_cell_angle_alpha   90.00000000
_cell_angle_beta   90.00000000
_cell_angle_gamma   90.00000000
_symmetry_Int_Tables_number   1
_chemical_formula_structural   Li23P4(S5Cl)4
_chemical_formula_sum   'Li23 P4 S20 Cl4'
_cell_volume   899.90583986
_cell_formula_units_Z   1
loop_
 _symmetry_equiv_pos_site_id
 _symmetry_equiv_pos_as_xyz
  1  'x, y, z'
loop_
 _atom_site_type_symbol
 _atom_site_label
 _atom_site_symmetry_multiplicity
 _atom_site_fract_x
 _atom_site_fract_y
 _atom_site_fract_z
 _atom_site_occupancy
  Li  Li0  1  0.97200000  0.30709000  0.30709000  1
  Li  Li1  1  0.97200000  0.80709000  0.80709000  1
  Li  Li2  1  0.00875000  0.28917000  0.71083000  1
  Li  Li3  1  0.02853000  0.83118000  0.16882000  1
  Li  Li4  1  0.16882000  0.16882000  0.97147000  1
  Li  Li5  1  0.47200000  0.69291000  0.19291000  1
  Li  Li6  1  0.78917000  0.21083000  0.00875000  1
  Li  Li7  1  0.69291000  0.69291000  0.97200000  1
  Li  Li8  1  0.28917000  0.99125000  0.28917000  1
  Li  Li9  1  0.30709000  0.02800000  0.69291000  1
  Li  Li10  1  0.80709000  0.97200000  0.80709000  1
  Li  Li11  1  0.80709000  0.02800000  0.19291000  1
  Li  Li12  1  0.28917000  0.21083000  0.50875000  1
  Li  Li13  1  0.66882000  0.83118000  0.52853000  1
  Li  Li14  1  0.66882000  0.16882000  0.47147000  1
  Li  Li15  1  0.19291000  0.47200000  0.69291000  1
  Li  Li16  1  0.29503000  0.56940000  0.06943000  1
  Li  Li17  1  0.78917000  0.49125000  0.28917000  1
  Li  Li18  1  0.83118000  0.52853000  0.66882000  1
  Li  Li19  1  0.47147000  0.33118000  0.83118000  1
  Li  Li20  1  0.43060000  0.79503000  0.43057000  1
  Li  Li21  1  0.52853000  0.33118000  0.16882000  1
  Li  Li22  1  0.50875000  0.71083000  0.78917000  1
  P  P23  1  0.49447446  0.50398224  0.49361064  1
  P  P24  1  0.49865233  0.00595781  0.99864709  1
  P  P25  1  0.00037640  0.49105498  0.99367179  1
  P  P26  1  0.00537928  0.98571698  0.49601101  1
  S  S27  1  0.13220609  0.87199449  0.62151411  1
  S  S28  1  0.12224687  0.11644516  0.37606550  1
  S  S29  1  0.90163214  0.84912938  0.37019386  1
  S  S30  1  0.85805287  0.09507005  0.60618612  1
  S  S31  1  0.89093164  0.61544824  0.12857892  1
  S  S32  1  0.87199315  0.38884744  0.85900242  1
  S  S33  1  0.13520675  0.62049193  0.89249549  1
  S  S34  1  0.11745968  0.35566812  0.10658360  1
  S  S35  1  0.61415770  0.13526427  0.87338184  1
  S  S36  1  0.62821618  0.88817797  0.12131794  1
  S  S37  1  0.37926869  0.13986228  0.11294304  1
  S  S38  1  0.36858648  0.87787265  0.89393103  1
  S  S39  1  0.61984905  0.64739423  0.39350277  1
  S  S40  1  0.61378961  0.37937637  0.61705419  1
  S  S41  1  0.36429493  0.62159755  0.61582258  1
  S  S42  1  0.38335412  0.39500246  0.35254216  1
  S  S43  1  0.74927000  0.75149226  0.75639836  1
  S  S44  1  0.76009211  0.25465102  0.24891958  1
  S  S45  1  0.26306500  0.74837747  0.25294668  1
  S  S46  1  0.24475051  0.24642019  0.73740464  1
  Cl  Cl47  1  0.97332236  0.00027940  0.99229690  1
  Cl  Cl48  1  0.99513475  0.47623778  0.50764234  1
  Cl  Cl49  1  0.48284684  0.01273236  0.49601040  1
  Cl  Cl50  1  0.50752514  0.52193466  0.00212241  1
