# generated using pymatgen
data_Li6PS5Cl
_symmetry_space_group_name_H-M   'P 1'
_cell_length_a   9.65380695
_cell_length_b   9.65380695
_cell_length_c   9.65380695
_cell_angle_alpha   90.00000000
_cell_angle_beta   90.00000000
_cell_angle_gamma   90.00000000
_symmetry_Int_Tables_number   1
_chemical_formula_structural   Li6PS5Cl
_chemical_formula_sum   'Li24 P4 S20 Cl4'
_cell_volume   899.69608377
_cell_formula_units_Z   4
loop_
 _symmetry_equiv_pos_site_id
 _symmetry_equiv_pos_as_xyz
  1  'x, y, z'
loop_
 _atom_site_type_symbol
 _atom_site_label
 _atom_site_symmetry_multiplicity
 _atom_site_fract_x
 _atom_site_fract_y
 _atom_site_fract_z
 _atom_site_occupancy
  Li  Li0  1  0.99681081  0.30952593  0.30407951  1
  Li  Li1  1  0.97793327  0.80677439  0.81100030  1
  Li  Li2  1  0.01468299  0.27266723  0.67632396  1
  Li  Li3  1  0.03845278  0.78968003  0.15987118  1
  Li  Li4  1  0.17940975  0.16549269  0.95517489  1
  Li  Li5  1  0.46539773  0.60934393  0.21874600  1
  Li  Li6  1  0.81253337  0.21247501  0.02377121  1
  Li  Li7  1  0.69776639  0.68484526  0.98990301  1
  Li  Li8  1  0.23439478  0.97635472  0.23497549  1
  Li  Li9  1  0.32416913  0.01464447  0.69761001  1
  Li  Li10  1  0.78088850  0.98070848  0.82377315  1
  Li  Li11  1  0.80429909  0.01892561  0.21698849  1
  Li  Li12  1  0.15941157  0.68012925  0.45269106  1
  Li  Li13  1  0.32373336  0.21445996  0.50591971  1
  Li  Li14  1  0.70418955  0.85512065  0.54935579  1
  Li  Li15  1  0.67043872  0.19298854  0.46806712  1
  Li  Li16  1  0.19767491  0.47353170  0.69337230  1
  Li  Li17  1  0.26839204  0.58727582  0.05680663  1
  Li  Li18  1  0.79699878  0.48516571  0.32708268  1
  Li  Li19  1  0.81154322  0.54189642  0.67246210  1
  Li  Li20  1  0.46072462  0.32522215  0.81955713  1
  Li  Li21  1  0.46598803  0.84725182  0.33908715  1
  Li  Li22  1  0.54661477  0.30939237  0.16717126  1
  Li  Li23  1  0.50881094  0.71297729  0.78902946  1
  P  P24  1  0.49809919  0.51084106  0.50074317  1
  P  P25  1  0.49193034  0.00157599  0.00886372  1
  P  P26  1  0.99555105  0.48905171  0.98992744  1
  P  P27  1  0.00250508  0.98770068  0.50100103  1
  S  S28  1  0.12773738  0.87211874  0.62492165  1
  S  S29  1  0.12219355  0.12179581  0.38683611  1
  S  S30  1  0.89720311  0.85452386  0.37334231  1
  S  S31  1  0.85759520  0.09657818  0.61473244  1
  S  S32  1  0.88065518  0.60652735  0.12636553  1
  S  S33  1  0.87085477  0.37828982  0.85938262  1
  S  S34  1  0.11564183  0.62134535  0.87379217  1
  S  S35  1  0.12882953  0.36841000  0.10120649  1
  S  S36  1  0.61159523  0.13430126  0.89073644  1
  S  S37  1  0.61623996  0.87909546  0.13287826  1
  S  S38  1  0.37365662  0.13432144  0.12588345  1
  S  S39  1  0.36236288  0.87901357  0.89738681  1
  S  S40  1  0.62840326  0.64920037  0.39986375  1
  S  S41  1  0.61581456  0.38548645  0.62470390  1
  S  S42  1  0.36320514  0.62990060  0.61232127  1
  S  S43  1  0.39262206  0.39995661  0.35429021  1
  S  S44  1  0.74479719  0.75360284  0.76502900  1
  S  S45  1  0.76463164  0.25487669  0.25468840  1
  S  S46  1  0.26273348  0.74462284  0.24397926  1
  S  S47  1  0.24808557  0.24455161  0.73519501  1
  Cl  Cl48  1  0.97360795  0.99818934  0.00300905  1
  Cl  Cl49  1  0.99798591  0.47920765  0.50621535  1
  Cl  Cl50  1  0.49620407  0.01606454  0.50845559  1
  Cl  Cl51  1  0.50173112  0.51399567  0.99679137  1
