# generated using pymatgen
data_Li6PS5Cl
_symmetry_space_group_name_H-M   'P 1'
_cell_length_a   9.65305678
_cell_length_b   9.65305678
_cell_length_c   9.65305678
_cell_angle_alpha   90.00000000
_cell_angle_beta   90.00000000
_cell_angle_gamma   90.00000000
_symmetry_Int_Tables_number   1
_chemical_formula_structural   Li6PS5Cl
_chemical_formula_sum   'Li24 P4 S20 Cl4'
_cell_volume   899.48636027
_cell_formula_units_Z   4
loop_
 _symmetry_equiv_pos_site_id
 _symmetry_equiv_pos_as_xyz
  1  'x, y, z'
loop_
 _atom_site_type_symbol
 _atom_site_label
 _atom_site_symmetry_multiplicity
 _atom_site_fract_x
 _atom_site_fract_y
 _atom_site_fract_z
 _atom_site_occupancy
  Li  Li0  1  0.99412642  0.31064879  0.31036803  1
  Li  Li1  1  0.97962402  0.80201389  0.81740419  1
  Li  Li2  1  0.01296039  0.27214704  0.68201098  1
  Li  Li3  1  0.03944161  0.81283802  0.16678360  1
  Li  Li4  1  0.17640325  0.16438925  0.96077780  1
  Li  Li5  1  0.31765090  0.52055730  0.20091460  1
  Li  Li6  1  0.81934076  0.21506005  0.02436489  1
  Li  Li7  1  0.69570435  0.67728576  0.99296601  1
  Li  Li8  1  0.28210752  0.97849398  0.28800434  1
  Li  Li9  1  0.32223799  0.01576968  0.68934926  1
  Li  Li10  1  0.78137673  0.98199176  0.82297983  1
  Li  Li11  1  0.80520020  0.02028831  0.21867521  1
  Li  Li12  1  0.14835739  0.68481886  0.45506569  1
  Li  Li13  1  0.30833858  0.21339013  0.51203051  1
  Li  Li14  1  0.69972236  0.84730971  0.54876909  1
  Li  Li15  1  0.65791191  0.19480009  0.46505702  1
  Li  Li16  1  0.19845538  0.47217672  0.69101346  1
  Li  Li17  1  0.31067903  0.70017592  0.01948540  1
  Li  Li18  1  0.79436618  0.48554934  0.30813973  1
  Li  Li19  1  0.81334432  0.54276756  0.66982531  1
  Li  Li20  1  0.45618998  0.33126372  0.82592545  1
  Li  Li21  1  0.47810930  0.80429650  0.32376328  1
  Li  Li22  1  0.55038864  0.31087639  0.16007557  1
  Li  Li23  1  0.51490609  0.70773835  0.77989514  1
  P  P24  1  0.50467330  0.50614957  0.50353307  1
  P  P25  1  0.49895955  0.00691711  0.00931697  1
  P  P26  1  0.00769259  0.49555971  0.99534732  1
  P  P27  1  0.99742698  0.98872994  0.50337349  1
  S  S28  1  0.12377544  0.87409163  0.62799839  1
  S  S29  1  0.11645246  0.11935653  0.38432244  1
  S  S30  1  0.89324450  0.85365832  0.37709543  1
  S  S31  1  0.85251921  0.10022169  0.61347188  1
  S  S32  1  0.89209348  0.61809094  0.12593700  1
  S  S33  1  0.87974581  0.38623041  0.86576477  1
  S  S34  1  0.12967031  0.62139181  0.87508078  1
  S  S35  1  0.13134355  0.36755113  0.11041168  1
  S  S36  1  0.61504547  0.14192847  0.89220283  1
  S  S37  1  0.62041316  0.88114267  0.12978701  1
  S  S38  1  0.37225195  0.13224023  0.12399111  1
  S  S39  1  0.37648456  0.88590944  0.88382247  1
  S  S40  1  0.63679069  0.63861144  0.40265498  1
  S  S41  1  0.61732608  0.38429934  0.63535431  1
  S  S42  1  0.36377524  0.62799940  0.60498924  1
  S  S43  1  0.40808486  0.37549216  0.36570682  1
  S  S44  1  0.74777033  0.75336798  0.76736325  1
  S  S45  1  0.76521228  0.25433825  0.25435870  1
  S  S46  1  0.25672891  0.74696090  0.24672986  1
  S  S47  1  0.24636095  0.24273100  0.74028476  1
  Cl  Cl48  1  0.97228414  0.00173054  0.99999245  1
  Cl  Cl49  1  0.00276076  0.47806430  0.50835623  1
  Cl  Cl50  1  0.48336411  0.00414355  0.48977335  1
  Cl  Cl51  1  0.49122331  0.51868035  0.00244997  1
