# generated using pymatgen
data_Li6PS5Cl
_symmetry_space_group_name_H-M   'P 1'
_cell_length_a   9.65230660
_cell_length_b   9.65230660
_cell_length_c   9.65230660
_cell_angle_alpha   90.00000000
_cell_angle_beta   90.00000000
_cell_angle_gamma   90.00000000
_symmetry_Int_Tables_number   1
_chemical_formula_structural   Li6PS5Cl
_chemical_formula_sum   'Li24 P4 S20 Cl4'
_cell_volume   899.27666937
_cell_formula_units_Z   4
loop_
 _symmetry_equiv_pos_site_id
 _symmetry_equiv_pos_as_xyz
  1  'x, y, z'
loop_
 _atom_site_type_symbol
 _atom_site_label
 _atom_site_symmetry_multiplicity
 _atom_site_fract_x
 _atom_site_fract_y
 _atom_site_fract_z
 _atom_site_occupancy
  Li  Li0  1  0.97453654  0.33859511  0.32437907  1
  Li  Li1  1  0.98561713  0.75552284  0.77279116  1
  Li  Li2  1  0.01956817  0.28194020  0.68828908  1
  Li  Li3  1  0.02539828  0.81798886  0.20189658  1
  Li  Li4  1  0.17032207  0.16893117  0.96085558  1
  Li  Li5  1  0.31138802  0.53604987  0.16067766  1
  Li  Li6  1  0.82512161  0.21772226  0.02924899  1
  Li  Li7  1  0.71472649  0.68933878  0.99121575  1
  Li  Li8  1  0.29212517  0.98300380  0.31195088  1
  Li  Li9  1  0.33345681  0.01952297  0.68945431  1
  Li  Li10  1  0.80246311  0.97105707  0.83011514  1
  Li  Li11  1  0.80588941  0.02328947  0.22255144  1
  Li  Li12  1  0.16262489  0.68433133  0.46087731  1
  Li  Li13  1  0.29438283  0.22769372  0.51024458  1
  Li  Li14  1  0.67937413  0.83983784  0.55211549  1
  Li  Li15  1  0.66704964  0.18770465  0.47310308  1
  Li  Li16  1  0.21148204  0.47572023  0.69784323  1
  Li  Li17  1  0.22976095  0.81045262  0.01990353  1
  Li  Li18  1  0.71467578  0.48346812  0.21508046  1
  Li  Li19  1  0.80343197  0.53581875  0.65055724  1
  Li  Li20  1  0.46478568  0.31981878  0.83478572  1
  Li  Li21  1  0.48158793  0.78799423  0.31186518  1
  Li  Li22  1  0.53127574  0.28126397  0.17421412  1
  Li  Li23  1  0.52397078  0.66344783  0.79876862  1
  P  P24  1  0.50269231  0.50328585  0.49740012  1
  P  P25  1  0.50745434  0.99661704  0.00326374  1
  P  P26  1  0.01218974  0.49611321  0.00056072  1
  P  P27  1  0.99656333  0.99732834  0.50846692  1
  S  S28  1  0.13162894  0.88220409  0.62492999  1
  S  S29  1  0.10627360  0.12714952  0.37986404  1
  S  S30  1  0.87990044  0.86212017  0.39311230  1
  S  S31  1  0.85951349  0.10836875  0.62734892  1
  S  S32  1  0.89903533  0.61849003  0.13361434  1
  S  S33  1  0.88238194  0.39216619  0.86913967  1
  S  S34  1  0.14771192  0.61798307  0.88931849  1
  S  S35  1  0.12576215  0.36230075  0.11891727  1
  S  S36  1  0.62740493  0.13349554  0.89342272  1
  S  S37  1  0.62802119  0.87774079  0.13146365  1
  S  S38  1  0.36566060  0.11180748  0.11278771  1
  S  S39  1  0.40252586  0.87040976  0.86837346  1
  S  S40  1  0.64635446  0.62711225  0.40080107  1
  S  S41  1  0.60772856  0.37630472  0.63185241  1
  S  S42  1  0.37383541  0.63339772  0.60518698  1
  S  S43  1  0.39000178  0.39005080  0.35706916  1
  S  S44  1  0.75042407  0.74579652  0.76233071  1
  S  S45  1  0.75538471  0.25361531  0.25661512  1
  S  S46  1  0.25228882  0.75553207  0.24843376  1
  S  S47  1  0.25198993  0.24344321  0.74444635  1
  Cl  Cl48  1  0.98409848  0.99552517  0.01308482  1
  Cl  Cl49  1  0.01779432  0.48624857  0.52856372  1
  Cl  Cl50  1  0.48453960  0.00465652  0.48327303  1
  Cl  Cl51  1  0.52292720  0.50269898  0.01444308  1
