# generated using pymatgen
data_Li6PS5Cl
_symmetry_space_group_name_H-M   'P 1'
_cell_length_a   9.65230660
_cell_length_b   9.65230660
_cell_length_c   9.65230660
_cell_angle_alpha   90.00000000
_cell_angle_beta   90.00000000
_cell_angle_gamma   90.00000000
_symmetry_Int_Tables_number   1
_chemical_formula_structural   Li6PS5Cl
_chemical_formula_sum   'Li24 P4 S20 Cl4'
_cell_volume   899.27666937
_cell_formula_units_Z   4
loop_
 _symmetry_equiv_pos_site_id
 _symmetry_equiv_pos_as_xyz
  1  'x, y, z'
loop_
 _atom_site_type_symbol
 _atom_site_label
 _atom_site_symmetry_multiplicity
 _atom_site_fract_x
 _atom_site_fract_y
 _atom_site_fract_z
 _atom_site_occupancy
  Li  Li0  1  0.97147000  0.33118000  0.33118000  1
  Li  Li1  1  0.97111000  0.75000000  0.75000000  1
  Li  Li2  1  0.00875000  0.28917000  0.71083000  1
  Li  Li3  1  0.02800000  0.80709000  0.19291000  1
  Li  Li4  1  0.16882000  0.16882000  0.97147000  1
  Li  Li5  1  0.33118000  0.52853000  0.16882000  1
  Li  Li6  1  0.80709000  0.19291000  0.02800000  1
  Li  Li7  1  0.71083000  0.71083000  0.99125000  1
  Li  Li8  1  0.30709000  0.97200000  0.30709000  1
  Li  Li9  1  0.33118000  0.02853000  0.66882000  1
  Li  Li10  1  0.80709000  0.97200000  0.80709000  1
  Li  Li11  1  0.78917000  0.00875000  0.21083000  1
  Li  Li12  1  0.16882000  0.66882000  0.47147000  1
  Li  Li13  1  0.28917000  0.21083000  0.50875000  1
  Li  Li14  1  0.66882000  0.83118000  0.52853000  1
  Li  Li15  1  0.66882000  0.16882000  0.47147000  1
  Li  Li16  1  0.19291000  0.47200000  0.69291000  1
  Li  Li17  1  0.21083000  0.78917000  0.00875000  1
  Li  Li18  1  0.71083000  0.49125000  0.21083000  1
  Li  Li19  1  0.83118000  0.52853000  0.66882000  1
  Li  Li20  1  0.47147000  0.33118000  0.83118000  1
  Li  Li21  1  0.47200000  0.80709000  0.30709000  1
  Li  Li22  1  0.52800000  0.30709000  0.19291000  1
  Li  Li23  1  0.52800000  0.69291000  0.80709000  1
  P  P24  1  0.50269231  0.50328585  0.49740012  1
  P  P25  1  0.50745434  0.99661704  0.00326374  1
  P  P26  1  0.01218974  0.49611321  0.00056072  1
  P  P27  1  0.99656333  0.99732834  0.50846692  1
  S  S28  1  0.13162894  0.88220409  0.62492999  1
  S  S29  1  0.10627360  0.12714952  0.37986404  1
  S  S30  1  0.87990044  0.86212017  0.39311230  1
  S  S31  1  0.85951349  0.10836875  0.62734892  1
  S  S32  1  0.89903533  0.61849003  0.13361434  1
  S  S33  1  0.88238194  0.39216619  0.86913967  1
  S  S34  1  0.14771192  0.61798307  0.88931849  1
  S  S35  1  0.12576215  0.36230075  0.11891727  1
  S  S36  1  0.62740493  0.13349554  0.89342272  1
  S  S37  1  0.62802119  0.87774079  0.13146365  1
  S  S38  1  0.36566060  0.11180748  0.11278771  1
  S  S39  1  0.40252586  0.87040976  0.86837346  1
  S  S40  1  0.64635446  0.62711225  0.40080107  1
  S  S41  1  0.60772856  0.37630472  0.63185241  1
  S  S42  1  0.37383541  0.63339772  0.60518698  1
  S  S43  1  0.39000178  0.39005080  0.35706916  1
  S  S44  1  0.75042407  0.74579652  0.76233071  1
  S  S45  1  0.75538471  0.25361531  0.25661512  1
  S  S46  1  0.25228882  0.75553207  0.24843376  1
  S  S47  1  0.25198993  0.24344321  0.74444635  1
  Cl  Cl48  1  0.98409848  0.99552517  0.01308482  1
  Cl  Cl49  1  0.01779432  0.48624857  0.52856372  1
  Cl  Cl50  1  0.48453960  0.00465652  0.48327303  1
  Cl  Cl51  1  0.52292720  0.50269898  0.01444308  1