# generated using pymatgen
data_Li6PS5Cl
_symmetry_space_group_name_H-M   'P 1'
_cell_length_a   9.65080626
_cell_length_b   9.65080626
_cell_length_c   9.65080626
_cell_angle_alpha   90.00000000
_cell_angle_beta   90.00000000
_cell_angle_gamma   90.00000000
_symmetry_Int_Tables_number   1
_chemical_formula_structural   Li6PS5Cl
_chemical_formula_sum   'Li24 P4 S20 Cl4'
_cell_volume   898.85738533
_cell_formula_units_Z   4
loop_
 _symmetry_equiv_pos_site_id
 _symmetry_equiv_pos_as_xyz
  1  'x, y, z'
loop_
 _atom_site_type_symbol
 _atom_site_label
 _atom_site_symmetry_multiplicity
 _atom_site_fract_x
 _atom_site_fract_y
 _atom_site_fract_z
 _atom_site_occupancy
  Li  Li0  1  0.95925215  0.34447747  0.32042072  1
  Li  Li1  1  0.99323301  0.71739468  0.71117583  1
  Li  Li2  1  0.01875104  0.29186863  0.71555644  1
  Li  Li3  1  0.02331395  0.82786646  0.21236661  1
  Li  Li4  1  0.17335943  0.16544775  0.96123039  1
  Li  Li5  1  0.30359667  0.53807559  0.15980683  1
  Li  Li6  1  0.82918122  0.18927808  0.04330052  1
  Li  Li7  1  0.81283229  0.77058309  0.98870562  1
  Li  Li8  1  0.30038517  0.98560860  0.31766239  1
  Li  Li9  1  0.34389387  0.02903678  0.67148767  1
  Li  Li10  1  0.81675201  0.97315171  0.79915451  1
  Li  Li11  1  0.71605072  0.01867630  0.27826118  1
  Li  Li12  1  0.18603577  0.68433832  0.46047040  1
  Li  Li13  1  0.22479736  0.27638500  0.51125174  1
  Li  Li14  1  0.66987611  0.81378967  0.55055304  1
  Li  Li15  1  0.66806998  0.19862730  0.48238657  1
  Li  Li16  1  0.23558760  0.48149113  0.72497127  1
  Li  Li17  1  0.21539530  0.82904815  0.01366111  1
  Li  Li18  1  0.69747867  0.48361958  0.17845818  1
  Li  Li19  1  0.79835329  0.51830724  0.67173529  1
  Li  Li20  1  0.46734571  0.30550342  0.84300386  1
  Li  Li21  1  0.48213951  0.77287416  0.30008534  1
  Li  Li22  1  0.51422036  0.28347729  0.18637281  1
  Li  Li23  1  0.54077871  0.66314821  0.83134679  1
  P  P24  1  0.50197926  0.50138637  0.50100953  1
  P  P25  1  0.50832968  0.98949091  0.99358134  1
  P  P26  1  0.00809602  0.49556719  0.00814061  1
  P  P27  1  0.99638116  0.00362280  0.49971242  1
  S  S28  1  0.13619772  0.89042888  0.61349990  1
  S  S29  1  0.10105618  0.12689893  0.36142857  1
  S  S30  1  0.87097956  0.86622206  0.39724320  1
  S  S31  1  0.87021734  0.12625464  0.61937193  1
  S  S32  1  0.90269025  0.61346463  0.15105549  1
  S  S33  1  0.87117221  0.38632422  0.88762004  1
  S  S34  1  0.13427247  0.62341510  0.89280116  1
  S  S35  1  0.12501956  0.35886280  0.11975413  1
  S  S36  1  0.63575151  0.12165123  0.88764641  1
  S  S37  1  0.62409169  0.86121414  0.11833879  1
  S  S38  1  0.36962515  0.10512081  0.10757835  1
  S  S39  1  0.39831822  0.87061177  0.85719393  1
  S  S40  1  0.64675181  0.61257058  0.39263827  1
  S  S41  1  0.60240159  0.37308232  0.63804924  1
  S  S42  1  0.38737088  0.63951485  0.61501613  1
  S  S43  1  0.37678503  0.39397491  0.36640287  1
  S  S44  1  0.76175295  0.74172547  0.75957342  1
  S  S45  1  0.74125078  0.25477233  0.25756346  1
  S  S46  1  0.25161197  0.76060092  0.24303436  1
  S  S47  1  0.25176257  0.24406500  0.74555844  1
  Cl  Cl48  1  0.98933572  0.97982565  0.00087819  1
  Cl  Cl49  1  0.02560226  0.49129007  0.54332676  1
  Cl  Cl50  1  0.50791157  0.99390310  0.46910551  1
  Cl  Cl51  1  0.50307833  0.48502254  0.01582804  1
