# generated using pymatgen
data_Li54PS5Cl
_symmetry_space_group_name_H-M   'P 1'
_cell_length_a   10.27949800
_cell_length_b   10.27949800
_cell_length_c   10.27949800
_cell_angle_alpha   90.00000000
_cell_angle_beta   90.00000000
_cell_angle_gamma   90.00000000
_symmetry_Int_Tables_number   1
_chemical_formula_structural   Li54PS5Cl
_chemical_formula_sum   'Li216 P4 S20 Cl4'
_cell_volume   1086.21480810
_cell_formula_units_Z   4
loop_
 _symmetry_equiv_pos_site_id
 _symmetry_equiv_pos_as_xyz
  1  'x, y, z'
loop_
 _atom_site_type_symbol
 _atom_site_label
 _atom_site_symmetry_multiplicity
 _atom_site_fract_x
 _atom_site_fract_y
 _atom_site_fract_z
 _atom_site_occupancy
  Li  Li0  1  0.97111000  0.25000000  0.25000000  1
  Li  Li1  1  0.97111000  0.75000000  0.75000000  1
  Li  Li2  1  0.02889000  0.25000000  0.75000000  1
  Li  Li3  1  0.02889000  0.75000000  0.25000000  1
  Li  Li4  1  0.25000000  0.25000000  0.97111000  1
  Li  Li5  1  0.25000000  0.75000000  0.02889000  1
  Li  Li6  1  0.75000000  0.25000000  0.02889000  1
  Li  Li7  1  0.75000000  0.75000000  0.97111000  1
  Li  Li8  1  0.25000000  0.97111000  0.25000000  1
  Li  Li9  1  0.25000000  0.02889000  0.75000000  1
  Li  Li10  1  0.75000000  0.97111000  0.75000000  1
  Li  Li11  1  0.75000000  0.02889000  0.25000000  1
  Li  Li12  1  0.25000000  0.75000000  0.47111000  1
  Li  Li13  1  0.25000000  0.25000000  0.52889000  1
  Li  Li14  1  0.75000000  0.75000000  0.52889000  1
  Li  Li15  1  0.75000000  0.25000000  0.47111000  1
  Li  Li16  1  0.25000000  0.47111000  0.75000000  1
  Li  Li17  1  0.25000000  0.52889000  0.25000000  1
  Li  Li18  1  0.75000000  0.47111000  0.25000000  1
  Li  Li19  1  0.75000000  0.52889000  0.75000000  1
  Li  Li20  1  0.47111000  0.25000000  0.75000000  1
  Li  Li21  1  0.47111000  0.75000000  0.25000000  1
  Li  Li22  1  0.52889000  0.25000000  0.25000000  1
  Li  Li23  1  0.52889000  0.75000000  0.75000000  1
  Li  Li24  1  0.06943000  0.29503000  0.56940000  1
  Li  Li25  1  0.06943000  0.70497000  0.43060000  1
  Li  Li26  1  0.93057000  0.29503000  0.43060000  1
  Li  Li27  1  0.93057000  0.70497000  0.56940000  1
  Li  Li28  1  0.29503000  0.56940000  0.06943000  1
  Li  Li29  1  0.29503000  0.43060000  0.93057000  1
  Li  Li30  1  0.70497000  0.56940000  0.93057000  1
  Li  Li31  1  0.70497000  0.43060000  0.06943000  1
  Li  Li32  1  0.56940000  0.06943000  0.29503000  1
  Li  Li33  1  0.56940000  0.93057000  0.70497000  1
  Li  Li34  1  0.43060000  0.06943000  0.70497000  1
  Li  Li35  1  0.43060000  0.93057000  0.29503000  1
  Li  Li36  1  0.29503000  0.06943000  0.56940000  1
  Li  Li37  1  0.29503000  0.93057000  0.43060000  1
  Li  Li38  1  0.70497000  0.06943000  0.43060000  1
  Li  Li39  1  0.70497000  0.93057000  0.56940000  1
  Li  Li40  1  0.06943000  0.56940000  0.29503000  1
  Li  Li41  1  0.06943000  0.43060000  0.70497000  1
  Li  Li42  1  0.93057000  0.56940000  0.70497000  1
  Li  Li43  1  0.93057000  0.43060000  0.29503000  1
  Li  Li44  1  0.56940000  0.29503000  0.06943000  1
  Li  Li45  1  0.56940000  0.70497000  0.93057000  1
  Li  Li46  1  0.43060000  0.29503000  0.93057000  1
  Li  Li47  1  0.43060000  0.70497000  0.06943000  1
  Li  Li48  1  0.06943000  0.79503000  0.06940000  1
  Li  Li49  1  0.06943000  0.20497000  0.93060000  1
  Li  Li50  1  0.93057000  0.79503000  0.93060000  1
  Li  Li51  1  0.93057000  0.20497000  0.06940000  1
  Li  Li52  1  0.56940000  0.56943000  0.79503000  1
  Li  Li53  1  0.56940000  0.43057000  0.20497000  1
  Li  Li54  1  0.43060000  0.56943000  0.20497000  1
  Li  Li55  1  0.43060000  0.43057000  0.79503000  1
  Li  Li56  1  0.06943000  0.06940000  0.79503000  1
  Li  Li57  1  0.06943000  0.93060000  0.20497000  1
  Li  Li58  1  0.93057000  0.06940000  0.20497000  1
  Li  Li59  1  0.93057000  0.93060000  0.79503000  1
  Li  Li60  1  0.56940000  0.79503000  0.56943000  1
  Li  Li61  1  0.56940000  0.20497000  0.43057000  1
  Li  Li62  1  0.43060000  0.79503000  0.43057000  1
  Li  Li63  1  0.43060000  0.20497000  0.56943000  1
  Li  Li64  1  0.79503000  0.56940000  0.56943000  1
  Li  Li65  1  0.79503000  0.43060000  0.43057000  1
  Li  Li66  1  0.20497000  0.56940000  0.43057000  1
  Li  Li67  1  0.20497000  0.43060000  0.56943000  1
  Li  Li68  1  0.79503000  0.06943000  0.06940000  1
  Li  Li69  1  0.79503000  0.93057000  0.93060000  1
  Li  Li70  1  0.20497000  0.06943000  0.93060000  1
  Li  Li71  1  0.20497000  0.93057000  0.06940000  1
  Li  Li72  1  0.30709000  0.02800000  0.69291000  1
  Li  Li73  1  0.30709000  0.97200000  0.30709000  1
  Li  Li74  1  0.69291000  0.02800000  0.30709000  1
  Li  Li75  1  0.69291000  0.97200000  0.69291000  1
  Li  Li76  1  0.02800000  0.69291000  0.30709000  1
  Li  Li77  1  0.02800000  0.30709000  0.69291000  1
  Li  Li78  1  0.97200000  0.69291000  0.69291000  1
  Li  Li79  1  0.97200000  0.30709000  0.30709000  1
  Li  Li80  1  0.69291000  0.30709000  0.02800000  1
  Li  Li81  1  0.69291000  0.69291000  0.97200000  1
  Li  Li82  1  0.30709000  0.30709000  0.97200000  1
  Li  Li83  1  0.30709000  0.69291000  0.02800000  1
  Li  Li84  1  0.30709000  0.52800000  0.19291000  1
  Li  Li85  1  0.30709000  0.47200000  0.80709000  1
  Li  Li86  1  0.69291000  0.52800000  0.80709000  1
  Li  Li87  1  0.69291000  0.47200000  0.19291000  1
  Li  Li88  1  0.02800000  0.19291000  0.80709000  1
  Li  Li89  1  0.02800000  0.80709000  0.19291000  1
  Li  Li90  1  0.97200000  0.19291000  0.19291000  1
  Li  Li91  1  0.97200000  0.80709000  0.80709000  1
  Li  Li92  1  0.69291000  0.80709000  0.52800000  1
  Li  Li93  1  0.69291000  0.19291000  0.47200000  1
  Li  Li94  1  0.30709000  0.80709000  0.47200000  1
  Li  Li95  1  0.30709000  0.19291000  0.52800000  1
  Li  Li96  1  0.80709000  0.02800000  0.19291000  1
  Li  Li97  1  0.80709000  0.97200000  0.80709000  1
  Li  Li98  1  0.19291000  0.02800000  0.80709000  1
  Li  Li99  1  0.19291000  0.97200000  0.19291000  1
  Li  Li100  1  0.52800000  0.69291000  0.80709000  1
  Li  Li101  1  0.52800000  0.30709000  0.19291000  1
  Li  Li102  1  0.47200000  0.69291000  0.19291000  1
  Li  Li103  1  0.47200000  0.30709000  0.80709000  1
  Li  Li104  1  0.19291000  0.30709000  0.52800000  1
  Li  Li105  1  0.19291000  0.69291000  0.47200000  1
  Li  Li106  1  0.80709000  0.30709000  0.47200000  1
  Li  Li107  1  0.80709000  0.69291000  0.52800000  1
  Li  Li108  1  0.80709000  0.52800000  0.69291000  1
  Li  Li109  1  0.80709000  0.47200000  0.30709000  1
  Li  Li110  1  0.19291000  0.52800000  0.30709000  1
  Li  Li111  1  0.19291000  0.47200000  0.69291000  1
  Li  Li112  1  0.52800000  0.19291000  0.30709000  1
  Li  Li113  1  0.52800000  0.80709000  0.69291000  1
  Li  Li114  1  0.47200000  0.19291000  0.69291000  1
  Li  Li115  1  0.47200000  0.80709000  0.30709000  1
  Li  Li116  1  0.19291000  0.80709000  0.02800000  1
  Li  Li117  1  0.19291000  0.19291000  0.97200000  1
  Li  Li118  1  0.80709000  0.80709000  0.97200000  1
  Li  Li119  1  0.80709000  0.19291000  0.02800000  1
  Li  Li120  1  0.33118000  0.02853000  0.66882000  1
  Li  Li121  1  0.33118000  0.97147000  0.33118000  1
  Li  Li122  1  0.66882000  0.02853000  0.33118000  1
  Li  Li123  1  0.66882000  0.97147000  0.66882000  1
  Li  Li124  1  0.02853000  0.66882000  0.33118000  1
  Li  Li125  1  0.02853000  0.33118000  0.66882000  1
  Li  Li126  1  0.97147000  0.66882000  0.66882000  1
  Li  Li127  1  0.97147000  0.33118000  0.33118000  1
  Li  Li128  1  0.66882000  0.33118000  0.02853000  1
  Li  Li129  1  0.66882000  0.66882000  0.97147000  1
  Li  Li130  1  0.33118000  0.33118000  0.97147000  1
  Li  Li131  1  0.33118000  0.66882000  0.02853000  1
  Li  Li132  1  0.33118000  0.52853000  0.16882000  1
  Li  Li133  1  0.33118000  0.47147000  0.83118000  1
  Li  Li134  1  0.66882000  0.52853000  0.83118000  1
  Li  Li135  1  0.66882000  0.47147000  0.16882000  1
  Li  Li136  1  0.02853000  0.16882000  0.83118000  1
  Li  Li137  1  0.02853000  0.83118000  0.16882000  1
  Li  Li138  1  0.97147000  0.16882000  0.16882000  1
  Li  Li139  1  0.97147000  0.83118000  0.83118000  1
  Li  Li140  1  0.66882000  0.83118000  0.52853000  1
  Li  Li141  1  0.66882000  0.16882000  0.47147000  1
  Li  Li142  1  0.33118000  0.83118000  0.47147000  1
  Li  Li143  1  0.33118000  0.16882000  0.52853000  1
  Li  Li144  1  0.83118000  0.02853000  0.16882000  1
  Li  Li145  1  0.83118000  0.97147000  0.83118000  1
  Li  Li146  1  0.16882000  0.02853000  0.83118000  1
  Li  Li147  1  0.16882000  0.97147000  0.16882000  1
  Li  Li148  1  0.52853000  0.66882000  0.83118000  1
  Li  Li149  1  0.52853000  0.33118000  0.16882000  1
  Li  Li150  1  0.47147000  0.66882000  0.16882000  1
  Li  Li151  1  0.47147000  0.33118000  0.83118000  1
  Li  Li152  1  0.16882000  0.33118000  0.52853000  1
  Li  Li153  1  0.16882000  0.66882000  0.47147000  1
  Li  Li154  1  0.83118000  0.33118000  0.47147000  1
  Li  Li155  1  0.83118000  0.66882000  0.52853000  1
  Li  Li156  1  0.83118000  0.52853000  0.66882000  1
  Li  Li157  1  0.83118000  0.47147000  0.33118000  1
  Li  Li158  1  0.16882000  0.52853000  0.33118000  1
  Li  Li159  1  0.16882000  0.47147000  0.66882000  1
  Li  Li160  1  0.52853000  0.16882000  0.33118000  1
  Li  Li161  1  0.52853000  0.83118000  0.66882000  1
  Li  Li162  1  0.47147000  0.16882000  0.66882000  1
  Li  Li163  1  0.47147000  0.83118000  0.33118000  1
  Li  Li164  1  0.16882000  0.83118000  0.02853000  1
  Li  Li165  1  0.16882000  0.16882000  0.97147000  1
  Li  Li166  1  0.83118000  0.83118000  0.97147000  1
  Li  Li167  1  0.83118000  0.16882000  0.02853000  1
  Li  Li168  1  0.78917000  0.00875000  0.21083000  1
  Li  Li169  1  0.78917000  0.99125000  0.78917000  1
  Li  Li170  1  0.21083000  0.00875000  0.78917000  1
  Li  Li171  1  0.21083000  0.99125000  0.21083000  1
  Li  Li172  1  0.00875000  0.21083000  0.78917000  1
  Li  Li173  1  0.00875000  0.78917000  0.21083000  1
  Li  Li174  1  0.99125000  0.21083000  0.21083000  1
  Li  Li175  1  0.99125000  0.78917000  0.78917000  1
  Li  Li176  1  0.21083000  0.78917000  0.00875000  1
  Li  Li177  1  0.21083000  0.21083000  0.99125000  1
  Li  Li178  1  0.78917000  0.78917000  0.99125000  1
  Li  Li179  1  0.78917000  0.21083000  0.00875000  1
  Li  Li180  1  0.78917000  0.50875000  0.71083000  1
  Li  Li181  1  0.78917000  0.49125000  0.28917000  1
  Li  Li182  1  0.21083000  0.50875000  0.28917000  1
  Li  Li183  1  0.21083000  0.49125000  0.71083000  1
  Li  Li184  1  0.00875000  0.71083000  0.28917000  1
  Li  Li185  1  0.00875000  0.28917000  0.71083000  1
  Li  Li186  1  0.99125000  0.71083000  0.71083000  1
  Li  Li187  1  0.99125000  0.28917000  0.28917000  1
  Li  Li188  1  0.21083000  0.28917000  0.50875000  1
  Li  Li189  1  0.21083000  0.71083000  0.49125000  1
  Li  Li190  1  0.78917000  0.28917000  0.49125000  1
  Li  Li191  1  0.78917000  0.71083000  0.50875000  1
  Li  Li192  1  0.28917000  0.00875000  0.71083000  1
  Li  Li193  1  0.28917000  0.99125000  0.28917000  1
  Li  Li194  1  0.71083000  0.00875000  0.28917000  1
  Li  Li195  1  0.71083000  0.99125000  0.71083000  1
  Li  Li196  1  0.50875000  0.21083000  0.28917000  1
  Li  Li197  1  0.50875000  0.78917000  0.71083000  1
  Li  Li198  1  0.49125000  0.21083000  0.71083000  1
  Li  Li199  1  0.49125000  0.78917000  0.28917000  1
  Li  Li200  1  0.71083000  0.78917000  0.50875000  1
  Li  Li201  1  0.71083000  0.21083000  0.49125000  1
  Li  Li202  1  0.28917000  0.78917000  0.49125000  1
  Li  Li203  1  0.28917000  0.21083000  0.50875000  1
  Li  Li204  1  0.28917000  0.50875000  0.21083000  1
  Li  Li205  1  0.28917000  0.49125000  0.78917000  1
  Li  Li206  1  0.71083000  0.50875000  0.78917000  1
  Li  Li207  1  0.71083000  0.49125000  0.21083000  1
  Li  Li208  1  0.50875000  0.71083000  0.78917000  1
  Li  Li209  1  0.50875000  0.28917000  0.21083000  1
  Li  Li210  1  0.49125000  0.71083000  0.21083000  1
  Li  Li211  1  0.49125000  0.28917000  0.78917000  1
  Li  Li212  1  0.71083000  0.28917000  0.00875000  1
  Li  Li213  1  0.71083000  0.71083000  0.99125000  1
  Li  Li214  1  0.28917000  0.28917000  0.99125000  1
  Li  Li215  1  0.28917000  0.71083000  0.00875000  1
  P  P216  1  0.50000000  0.50000000  0.50000000  1
  P  P217  1  0.50000000  0.00000000  0.00000000  1
  P  P218  1  0.00000000  0.50000000  0.00000000  1
  P  P219  1  0.00000000  0.00000000  0.50000000  1
  S  S220  1  0.12067000  0.87933000  0.62067000  1
  S  S221  1  0.12067000  0.12067000  0.37933000  1
  S  S222  1  0.87933000  0.87933000  0.37933000  1
  S  S223  1  0.87933000  0.12067000  0.62067000  1
  S  S224  1  0.87933000  0.62067000  0.12067000  1
  S  S225  1  0.87933000  0.37933000  0.87933000  1
  S  S226  1  0.12067000  0.62067000  0.87933000  1
  S  S227  1  0.12067000  0.37933000  0.12067000  1
  S  S228  1  0.62067000  0.12067000  0.87933000  1
  S  S229  1  0.62067000  0.87933000  0.12067000  1
  S  S230  1  0.37933000  0.12067000  0.12067000  1
  S  S231  1  0.37933000  0.87933000  0.87933000  1
  S  S232  1  0.62067000  0.62067000  0.37933000  1
  S  S233  1  0.62067000  0.37933000  0.62067000  1
  S  S234  1  0.37933000  0.62067000  0.62067000  1
  S  S235  1  0.37933000  0.37933000  0.37933000  1
  S  S236  1  0.75000000  0.75000000  0.75000000  1
  S  S237  1  0.75000000  0.25000000  0.25000000  1
  S  S238  1  0.25000000  0.75000000  0.25000000  1
  S  S239  1  0.25000000  0.25000000  0.75000000  1
  Cl  Cl240  1  0.00000000  0.00000000  0.00000000  1
  Cl  Cl241  1  0.00000000  0.50000000  0.50000000  1
  Cl  Cl242  1  0.50000000  0.00000000  0.50000000  1
  Cl  Cl243  1  0.50000000  0.50000000  0.00000000  1
